5N2F
  PyMOL3.2          3D                             0

 36 39  0  0  0  0  0  0  0  0999 V2000
   32.3270    6.0720  136.8030 N   0  0  0  0  0  0  0  0  0  0  0  0
   33.0940    8.2630  134.6630 C   0  0  0  0  0  0  0  0  0  0  0  0
   34.0600   11.8070  134.5850 O   0  0  0  0  0  0  0  0  0  0  0  0
   33.1820    9.5770  134.2340 C   0  0  0  0  0  0  0  0  0  0  0  0
   29.9600   19.3020  129.0160 O   0  0  0  0  0  0  0  0  0  0  0  0
   33.9270   10.4760  134.9770 C   0  0  0  0  0  0  0  0  0  0  0  0
   32.5870   18.5320  128.2800 O   0  0  0  0  0  0  0  0  0  0  0  0
   33.1670   12.2060  133.5850 C   0  0  0  0  0  0  0  0  0  0  0  0
   33.6580    6.1480  139.3720 O   0  0  0  0  0  0  0  0  0  0  0  0
   33.5550   13.6450  133.3050 C   0  0  0  0  0  0  0  0  0  0  0  0
   29.4890    5.4500  139.1260 O   0  0  0  0  0  0  0  0  0  0  0  0
   32.7080   14.4240  132.5320 C   0  0  0  0  0  0  0  0  0  0  0  0
   29.5260    7.5300  139.8050 O   0  0  0  0  0  0  0  0  0  0  0  0
   31.4480   13.7870  131.9860 C   0  0  0  0  0  0  0  0  0  0  0  0
   33.0380   15.7370  132.2720 C   0  0  0  0  0  0  0  0  0  0  0  0
   32.1600   16.6680  131.4250 C   0  0  0  0  0  0  0  0  0  0  0  0
   32.7230   17.1700  130.2630 C   0  0  0  0  0  0  0  0  0  0  0  0
   31.9760   18.0430  129.4550 C   0  0  0  0  0  0  0  0  0  0  0  0
   30.7120   18.4010  129.8280 C   0  0  0  0  0  0  0  0  0  0  0  0
   30.7270   19.9920  128.0330 C   0  0  0  0  0  0  0  0  0  0  0  0
   31.7220   19.0770  127.3440 C   0  0  0  0  0  0  0  0  0  0  0  0
   30.1110   17.9090  131.0100 C   0  0  0  0  0  0  0  0  0  0  0  0
   30.8680   17.0460  131.8150 C   0  0  0  0  0  0  0  0  0  0  0  0
   34.2110   16.2550  132.7950 C   0  0  0  0  0  0  0  0  0  0  0  0
   35.0530   15.4740  133.5720 C   0  0  0  0  0  0  0  0  0  0  0  0
   34.7200   14.1560  133.8320 C   0  0  0  0  0  0  0  0  0  0  0  0
   34.5740   10.0710  136.1290 C   0  0  0  0  0  0  0  0  0  0  0  0
   34.4930    8.7580  136.5560 C   0  0  0  0  0  0  0  0  0  0  0  0
   33.7400    7.8520  135.8190 C   0  0  0  0  0  0  0  0  0  0  0  0
   33.6290    6.3890  136.2540 C   0  0  0  0  0  0  0  0  0  0  0  0
   32.0310    6.9990  137.8720 C   0  0  0  0  0  0  0  0  0  0  0  0
   32.5170    6.4200  139.1970 C   0  0  0  0  0  0  0  0  0  0  0  0
   31.4780    6.1930  140.2880 C   0  0  0  0  0  0  0  0  0  0  0  0
   30.0790    6.4020  139.7080 C   0  0  0  0  0  0  0  0  0  0  0  0
   32.3720    7.3540  133.9510 F   0  0  0  0  0  0  0  0  0  0  0  0
   35.2930   10.9890  136.8320 F   0  0  0  0  0  0  0  0  0  0  0  0
  1 31  1  0  0  0  0
  2 35  1  0  0  0  0
  3  8  1  0  0  0  0
  2  4  4  0  0  0  0
  3  6  1  0  0  0  0
  4  6  4  0  0  0  0
  7 21  1  0  0  0  0
  8 10  1  0  0  0  0
 10 12  4  0  0  0  0
 10 26  4  0  0  0  0
 12 14  1  0  0  0  0
 12 15  4  0  0  0  0
 15 16  1  0  0  0  0
 15 24  4  0  0  0  0
 16 17  4  0  0  0  0
 16 23  4  0  0  0  0
 17 18  4  0  0  0  0
  7 18  1  0  0  0  0
 18 19  4  0  0  0  0
  5 19  1  0  0  0  0
 19 22  4  0  0  0  0
  5 20  1  0  0  0  0
 20 21  1  0  0  0  0
 22 23  4  0  0  0  0
 24 25  4  0  0  0  0
 25 26  4  0  0  0  0
  6 27  4  0  0  0  0
 27 28  4  0  0  0  0
 28 29  4  0  0  0  0
  2 29  4  0  0  0  0
 29 30  1  0  0  0  0
  1 30  1  0  0  0  0
 31 32  1  0  0  0  0
  9 32  2  0  0  0  0
 32 33  1  0  0  0  0
 33 34  1  0  0  0  0
 11 34  4  0  0  0  0
 13 34  4  0  0  0  0
 27 36  1  0  0  0  0
M  END
$$$$
