7uj4
     RDKit          3D

 44 48  0  0  0  0  0  0  0  0999 V2000
  -25.0039    1.0307   23.4982 C   0  0  0  0  0  0  0  0  0  0  0  0
  -23.7597    1.6777   25.5133 N   0  0  0  0  0  0  0  0  0  0  0  0
  -22.9547   -0.1004   26.6904 O   0  0  0  0  0  0  0  0  0  0  0  0
  -20.1486  -11.8749   23.7900 S   0  0  1  0  0  6  0  0  0  0  0  0
  -24.8087    0.8463   24.9727 C   0  0  1  0  0  0  0  0  0  0  0  0
  -17.8555    3.3777   23.3528 N   0  0  0  0  0  0  0  0  0  0  0  0
  -20.0709    1.3469   25.3849 O   0  0  0  0  0  0  0  0  0  0  0  0
  -26.1024    1.2087   25.7161 C   0  0  0  0  0  0  0  0  0  0  0  0
  -18.4212    1.4571   22.2150 N   0  0  0  0  0  0  0  0  0  0  0  0
  -20.0289  -12.0240   25.2808 O   0  0  0  0  0  0  0  0  0  0  0  0
  -23.6822    3.0818   25.1334 C   0  0  0  0  0  0  0  0  0  0  0  0
  -19.8766   -0.2346   23.1484 N   0  0  0  0  0  0  0  0  0  0  0  0
  -21.5978  -12.0463   23.4348 O   0  0  0  0  0  0  0  0  0  0  0  0
  -22.6365    3.3414   24.0869 C   0  0  0  0  0  0  0  0  0  0  0  0
  -19.3811   -5.1175   22.8328 N   0  0  0  0  0  0  0  0  0  0  0  0
  -22.8261    1.1038   26.4130 C   0  0  0  0  0  0  0  0  0  0  0  0
  -19.6688  -10.2883   23.3419 N   0  0  0  0  0  0  0  0  0  0  0  0
  -21.7748    1.9354   26.9638 C   0  0  0  0  0  0  0  0  0  0  0  0
  -22.0574    2.6928   28.1056 C   0  0  0  0  0  0  0  0  0  0  0  0
  -21.1283    3.4848   28.7265 C   0  0  0  0  0  0  0  0  0  0  0  0
  -19.8336    3.5681   28.2316 C   0  0  0  0  0  0  0  0  0  0  0  0
  -19.5430    2.8337   27.1165 C   0  0  0  0  0  0  0  0  0  0  0  0
  -20.4965    2.0227   26.4801 C   0  0  0  0  0  0  0  0  0  0  0  0
  -19.2788    1.8246   24.3646 C   0  0  0  0  0  0  0  0  0  0  0  0
  -18.5923    3.0251   24.4106 C   0  0  0  0  0  0  0  0  0  0  0  0
  -17.7604    2.6108   22.2558 C   0  0  0  0  0  0  0  0  0  0  0  0
  -19.1981    1.0030   23.2334 C   0  0  0  0  0  0  0  0  0  0  0  0
  -20.3001   -1.0710   22.0427 C   0  0  0  0  0  0  0  0  0  0  0  0
  -20.4487   -1.2247   24.0277 C   0  0  0  0  0  0  0  0  0  0  0  0
  -20.0828   -2.2528   22.9814 C   0  0  2  0  0  0  0  0  0  0  0  0
  -18.6812   -2.7729   23.0614 C   0  0  0  0  0  0  0  0  0  0  0  0
  -18.7068   -4.1488   23.6984 C   0  0  0  0  0  0  0  0  0  0  0  0
  -21.0090   -3.4054   22.7935 C   0  0  0  0  0  0  0  0  0  0  0  0
  -20.2267   -4.4453   21.9408 C   0  0  0  0  0  0  0  0  0  0  0  0
  -18.4341   -6.0572   22.4120 C   0  0  0  0  0  0  0  0  0  0  0  0
  -18.7654   -7.5185   22.5368 C   0  0  1  0  0  0  0  0  0  0  0  0
  -20.1493   -7.7736   22.0335 C   0  0  0  0  0  0  0  0  0  0  0  0
  -20.3670   -9.0609   21.3264 C   0  0  0  0  0  0  0  0  0  0  0  0
  -17.6722   -8.3735   22.0918 C   0  0  0  0  0  0  0  0  0  0  0  0
  -18.0669   -9.7467   21.6129 C   0  0  0  0  0  0  0  0  0  0  0  0
  -19.4767  -10.1219   21.9376 C   0  0  1  0  0  0  0  0  0  0  0  0
  -19.1386  -13.1201   23.0419 C   0  0  0  0  0  0  0  0  0  0  0  0
  -19.7932  -13.6129   21.7910 C   0  0  0  0  0  0  0  0  0  0  0  0
  -21.4090    4.2192   29.8388 F   0  0  0  0  0  0  0  0  0  0  0  0
  5  1  1  6
  2 11  1  0
  2 16  1  0
  4 10  2  0
  4 13  2  0
  4 42  1  6
  2  5  1  0
  5  8  1  0
  6 26  2  0
  7 24  1  0
  9 27  2  0
 11 14  1  0
 12 28  1  0
 12 29  1  0
 15 35  1  0
  3 16  2  0
 16 18  1  0
  4 17  1  0
 18 19  2  0
 18 23  1  0
 19 20  1  0
 20 21  2  0
 20 44  1  0
 21 22  1  0
 22 23  2  0
  7 23  1  0
 24 25  2  0
 24 27  1  0
  6 25  1  0
  9 26  1  0
 12 27  1  0
 30 28  1  6
 29 30  1  0
 30 31  1  0
 30 33  1  0
 31 32  1  0
 15 32  1  0
 33 34  1  0
 15 34  1  0
 36 35  1  6
 36 37  1  0
 36 39  1  0
 37 38  1  0
 38 41  1  0
 39 40  1  0
 40 41  1  0
 41 17  1  1
 42 43  1  0
M  END
$$$$
