7uj4
     RDKit          3D

 44 48  0  0  0  0  0  0  0  0999 V2000
  -24.5093    1.5420   23.0754 C   0  0  0  0  0  0  0  0  0  0  0  0
  -23.4673    2.5025   25.0802 N   0  0  0  0  0  0  0  0  0  0  0  0
  -24.2061    1.7624   27.1055 O   0  0  0  0  0  0  0  0  0  0  0  0
  -19.5011  -12.3991   22.4665 S   0  0  1  0  0  6  0  0  0  0  0  0
  -24.6991    2.0669   24.4664 C   0  0  1  0  0  0  0  0  0  0  0  0
  -18.1512    2.8690   23.1214 N   0  0  0  0  0  0  0  0  0  0  0  0
  -20.6190    1.4836   25.3911 O   0  0  0  0  0  0  0  0  0  0  0  0
  -25.6442    3.2767   24.4392 C   0  0  0  0  0  0  0  0  0  0  0  0
  -18.2149    0.5772   22.9050 N   0  0  0  0  0  0  0  0  0  0  0  0
  -19.6523  -12.3671   23.9615 O   0  0  0  0  0  0  0  0  0  0  0  0
  -22.4674    3.1969   24.2804 C   0  0  0  0  0  0  0  0  0  0  0  0
  -19.6973   -0.8183   24.2113 N   0  0  0  0  0  0  0  0  0  0  0  0
  -20.6864  -13.1339   21.9091 O   0  0  0  0  0  0  0  0  0  0  0  0
  -22.4258    4.6722   24.5589 C   0  0  0  0  0  0  0  0  0  0  0  0
  -20.1287   -5.5422   22.9127 N   0  0  0  0  0  0  0  0  0  0  0  0
  -23.2617    2.2467   26.4595 C   0  0  0  0  0  0  0  0  0  0  0  0
  -19.5315  -10.7921   21.8624 N   0  0  0  0  0  0  0  0  0  0  0  0
  -21.9751    2.5567   27.0501 C   0  0  0  0  0  0  0  0  0  0  0  0
  -21.9520    3.2685   28.2542 C   0  0  0  0  0  0  0  0  0  0  0  0
  -20.7940    3.5839   28.9144 C   0  0  0  0  0  0  0  0  0  0  0  0
  -19.5641    3.1979   28.3981 C   0  0  0  0  0  0  0  0  0  0  0  0
  -19.5713    2.5020   27.2222 C   0  0  0  0  0  0  0  0  0  0  0  0
  -20.7589    2.1799   26.5457 C   0  0  0  0  0  0  0  0  0  0  0  0
  -19.6362    1.6355   24.4384 C   0  0  0  0  0  0  0  0  0  0  0  0
  -19.1024    2.8547   24.0599 C   0  0  0  0  0  0  0  0  0  0  0  0
  -17.7001    1.7476   22.5386 C   0  0  0  0  0  0  0  0  0  0  0  0
  -19.1848    0.4484   23.8482 C   0  0  0  0  0  0  0  0  0  0  0  0
  -20.9324   -1.5198   23.9215 C   0  0  0  0  0  0  0  0  0  0  0  0
  -19.3031   -1.9713   24.9834 C   0  0  0  0  0  0  0  0  0  0  0  0
  -20.1111   -2.8014   24.0120 C   0  0  2  0  0  0  0  0  0  0  0  0
  -19.3898   -3.2033   22.7632 C   0  0  0  0  0  0  0  0  0  0  0  0
  -18.9658   -4.6537   22.8896 C   0  0  0  0  0  0  0  0  0  0  0  0
  -20.8284   -3.9912   24.5520 C   0  0  0  0  0  0  0  0  0  0  0  0
  -21.2635   -4.8245   23.3124 C   0  0  0  0  0  0  0  0  0  0  0  0
  -20.1005   -6.3249   21.7536 C   0  0  0  0  0  0  0  0  0  0  0  0
  -19.7242   -7.7757   21.8737 C   0  0  1  0  0  0  0  0  0  0  0  0
  -19.0848   -8.2444   20.6069 C   0  0  0  0  0  0  0  0  0  0  0  0
  -17.9864   -9.2333   20.7492 C   0  0  0  0  0  0  0  0  0  0  0  0
  -19.0909   -8.0790   23.1508 C   0  0  0  0  0  0  0  0  0  0  0  0
  -18.1696   -9.2714   23.1591 C   0  0  0  0  0  0  0  0  0  0  0  0
  -18.2712  -10.1267   21.9377 C   0  0  1  0  0  0  0  0  0  0  0  0
  -17.9827  -13.2286   22.0969 C   0  0  0  0  0  0  0  0  0  0  0  0
  -18.0101  -13.7209   20.6852 C   0  0  0  0  0  0  0  0  0  0  0  0
  -20.7777    4.2762   30.0873 F   0  0  0  0  0  0  0  0  0  0  0  0
  5  1  1  6
  2 11  1  0
  2 16  1  0
  4 10  2  0
  4 13  2  0
  4 42  1  1
  2  5  1  0
  5  8  1  0
  6 26  2  0
  7 24  1  0
  9 27  2  0
 11 14  1  0
 12 28  1  0
 12 29  1  0
 15 35  1  0
  3 16  2  0
 16 18  1  0
  4 17  1  0
 18 19  2  0
 18 23  1  0
 19 20  1  0
 20 21  2  0
 20 44  1  0
 21 22  1  0
 22 23  2  0
  7 23  1  0
 24 25  2  0
 24 27  1  0
  6 25  1  0
  9 26  1  0
 12 27  1  0
 30 28  1  6
 29 30  1  0
 30 31  1  0
 30 33  1  0
 31 32  1  0
 15 32  1  0
 33 34  1  0
 15 34  1  0
 36 35  1  6
 36 37  1  0
 36 39  1  0
 37 38  1  0
 38 41  1  0
 39 40  1  0
 40 41  1  0
 41 17  1  6
 42 43  1  0
M  END
$$$$
