7uj4
     RDKit          3D

 44 48  0  0  0  0  0  0  0  0999 V2000
  -24.5504    1.6464   22.6723 C   0  0  0  0  0  0  0  0  0  0  0  0
  -23.5338    2.4726   24.7487 N   0  0  0  0  0  0  0  0  0  0  0  0
  -24.0159    1.5453   26.7744 O   0  0  0  0  0  0  0  0  0  0  0  0
  -18.0992  -11.9624   22.6260 S   0  0  1  0  0  6  0  0  0  0  0  0
  -24.6691    1.8047   24.1580 C   0  0  1  0  0  0  0  0  0  0  0  0
  -18.3819    3.0126   22.4418 N   0  0  0  0  0  0  0  0  0  0  0  0
  -20.5271    1.5825   24.9941 O   0  0  0  0  0  0  0  0  0  0  0  0
  -25.9117    2.6425   24.4921 C   0  0  0  0  0  0  0  0  0  0  0  0
  -18.0098    0.7453   22.5974 N   0  0  0  0  0  0  0  0  0  0  0  0
  -16.5992  -12.0383   22.5696 O   0  0  0  0  0  0  0  0  0  0  0  0
  -22.7638    3.4241   23.9593 C   0  0  0  0  0  0  0  0  0  0  0  0
  -19.1916   -0.6687   24.1642 N   0  0  0  0  0  0  0  0  0  0  0  0
  -18.5188  -12.3584   24.0127 O   0  0  0  0  0  0  0  0  0  0  0  0
  -22.7994    4.8129   24.5302 C   0  0  0  0  0  0  0  0  0  0  0  0
  -20.0208   -5.4375   23.2929 N   0  0  0  0  0  0  0  0  0  0  0  0
  -23.1967    2.1877   26.0962 C   0  0  0  0  0  0  0  0  0  0  0  0
  -18.5920  -10.3395   22.3577 N   0  0  0  0  0  0  0  0  0  0  0  0
  -21.9271    2.6518   26.6187 C   0  0  0  0  0  0  0  0  0  0  0  0
  -21.9343    3.4495   27.7680 C   0  0  0  0  0  0  0  0  0  0  0  0
  -20.7914    3.9128   28.3639 C   0  0  0  0  0  0  0  0  0  0  0  0
  -19.5467    3.5991   27.8342 C   0  0  0  0  0  0  0  0  0  0  0  0
  -19.5242    2.8207   26.7114 C   0  0  0  0  0  0  0  0  0  0  0  0
  -20.6966    2.3469   26.1007 C   0  0  0  0  0  0  0  0  0  0  0  0
  -19.5970    1.7567   23.9935 C   0  0  0  0  0  0  0  0  0  0  0  0
  -19.3073    2.9752   23.4053 C   0  0  0  0  0  0  0  0  0  0  0  0
  -17.7293    1.9150   22.0295 C   0  0  0  0  0  0  0  0  0  0  0  0
  -18.9317    0.5943   23.5843 C   0  0  0  0  0  0  0  0  0  0  0  0
  -20.4055   -1.3994   24.4713 C   0  0  0  0  0  0  0  0  0  0  0  0
  -18.4613   -1.7902   24.7025 C   0  0  0  0  0  0  0  0  0  0  0  0
  -19.5935   -2.6637   24.2118 C   0  0  2  0  0  0  0  0  0  0  0  0
  -19.4939   -3.0925   22.7808 C   0  0  0  0  0  0  0  0  0  0  0  0
  -19.0164   -4.5310   22.7344 C   0  0  0  0  0  0  0  0  0  0  0  0
  -19.9600   -3.8477   25.0397 C   0  0  0  0  0  0  0  0  0  0  0  0
  -20.8782   -4.7266   24.1426 C   0  0  0  0  0  0  0  0  0  0  0  0
  -20.4901   -6.2556   22.2597 C   0  0  0  0  0  0  0  0  0  0  0  0
  -19.8774   -7.6175   22.0852 C   0  0  1  0  0  0  0  0  0  0  0  0
  -20.9293   -8.6714   22.2135 C   0  0  0  0  0  0  0  0  0  0  0  0
  -20.7803   -9.8617   21.3385 C   0  0  0  0  0  0  0  0  0  0  0  0
  -18.9474   -7.6662   20.9641 C   0  0  0  0  0  0  0  0  0  0  0  0
  -18.7477   -9.0213   20.3362 C   0  0  0  0  0  0  0  0  0  0  0  0
  -19.3081  -10.1514   21.1377 C   0  0  1  0  0  0  0  0  0  0  0  0
  -18.7404  -13.0711   21.4054 C   0  0  0  0  0  0  0  0  0  0  0  0
  -19.6583  -14.0567   22.0550 C   0  0  0  0  0  0  0  0  0  0  0  0
  -20.8045    4.6882   29.4836 F   0  0  0  0  0  0  0  0  0  0  0  0
  5  1  1  6
  2 11  1  0
  2 16  1  0
  4 10  2  0
  4 13  2  0
  4 42  1  6
  2  5  1  0
  5  8  1  0
  6 26  2  0
  7 24  1  0
  9 27  2  0
 11 14  1  0
 12 28  1  0
 12 29  1  0
 15 35  1  0
  3 16  2  0
 16 18  1  0
  4 17  1  0
 18 19  2  0
 18 23  1  0
 19 20  1  0
 20 21  2  0
 20 44  1  0
 21 22  1  0
 22 23  2  0
  7 23  1  0
 24 25  2  0
 24 27  1  0
  6 25  1  0
  9 26  1  0
 12 27  1  0
 30 28  1  6
 29 30  1  0
 30 31  1  0
 30 33  1  0
 31 32  1  0
 15 32  1  0
 33 34  1  0
 15 34  1  0
 36 35  1  6
 36 37  1  0
 36 39  1  0
 37 38  1  0
 38 41  1  0
 39 40  1  0
 40 41  1  0
 41 17  1  1
 42 43  1  0
M  END
$$$$
