7uj4
     RDKit          3D

 44 48  0  0  0  0  0  0  0  0999 V2000
  -24.4638    1.6973   22.9302 C   0  0  0  0  0  0  0  0  0  0  0  0
  -23.5794    2.3582   25.1231 N   0  0  0  0  0  0  0  0  0  0  0  0
  -23.4748    0.5426   26.4972 O   0  0  0  0  0  0  0  0  0  0  0  0
  -18.7868  -11.6987   21.5451 S   0  0  1  0  0  6  0  0  0  0  0  0
  -24.6831    1.7584   24.4116 C   0  0  1  0  0  0  0  0  0  0  0  0
  -17.6823    3.3786   23.4766 N   0  0  0  0  0  0  0  0  0  0  0  0
  -20.1711    1.4718   25.3019 O   0  0  0  0  0  0  0  0  0  0  0  0
  -25.9300    2.6009   24.7165 C   0  0  0  0  0  0  0  0  0  0  0  0
  -18.1940    1.4521   22.3232 N   0  0  0  0  0  0  0  0  0  0  0  0
  -18.3056  -11.7580   20.1224 O   0  0  0  0  0  0  0  0  0  0  0  0
  -23.1075    3.6822   24.7413 C   0  0  0  0  0  0  0  0  0  0  0  0
  -19.7997   -0.1671   23.1301 N   0  0  0  0  0  0  0  0  0  0  0  0
  -17.8050  -12.4640   22.3853 O   0  0  0  0  0  0  0  0  0  0  0  0
  -22.1659    3.6463   23.5717 C   0  0  0  0  0  0  0  0  0  0  0  0
  -19.7145   -5.0199   23.9243 N   0  0  0  0  0  0  0  0  0  0  0  0
  -22.9805    1.6399   26.1888 C   0  0  0  0  0  0  0  0  0  0  0  0
  -18.7872  -10.0645   22.0723 N   0  0  0  0  0  0  0  0  0  0  0  0
  -21.8316    2.2088   26.8646 C   0  0  0  0  0  0  0  0  0  0  0  0
  -22.0406    2.8927   28.0670 C   0  0  0  0  0  0  0  0  0  0  0  0
  -21.0229    3.4384   28.8036 C   0  0  0  0  0  0  0  0  0  0  0  0
  -19.7075    3.3303   28.3719 C   0  0  0  0  0  0  0  0  0  0  0  0
  -19.4883    2.6649   27.1987 C   0  0  0  0  0  0  0  0  0  0  0  0
  -20.5324    2.1065   26.4439 C   0  0  0  0  0  0  0  0  0  0  0  0
  -19.2593    1.8985   24.3621 C   0  0  0  0  0  0  0  0  0  0  0  0
  -18.5386    3.0758   24.4570 C   0  0  0  0  0  0  0  0  0  0  0  0
  -17.5000    2.5835   22.4111 C   0  0  0  0  0  0  0  0  0  0  0  0
  -19.0897    1.0484   23.2621 C   0  0  0  0  0  0  0  0  0  0  0  0
  -19.8315   -1.2037   22.1172 C   0  0  0  0  0  0  0  0  0  0  0  0
  -20.7704   -0.9453   23.8601 C   0  0  0  0  0  0  0  0  0  0  0  0
  -20.1249   -2.1725   23.2575 C   0  0  2  0  0  0  0  0  0  0  0  0
  -18.9304   -2.6920   23.9955 C   0  0  0  0  0  0  0  0  0  0  0  0
  -19.3452   -3.9077   24.8013 C   0  0  0  0  0  0  0  0  0  0  0  0
  -21.0114   -3.3213   22.9168 C   0  0  0  0  0  0  0  0  0  0  0  0
  -20.0641   -4.5283   22.6600 C   0  0  0  0  0  0  0  0  0  0  0  0
  -18.7781   -6.0438   24.1033 C   0  0  0  0  0  0  0  0  0  0  0  0
  -18.9347   -7.3096   23.3071 C   0  0  1  0  0  0  0  0  0  0  0  0
  -19.8862   -8.2329   23.9969 C   0  0  0  0  0  0  0  0  0  0  0  0
  -20.7670   -9.0466   23.1214 C   0  0  0  0  0  0  0  0  0  0  0  0
  -19.0942   -7.0504   21.8818 C   0  0  0  0  0  0  0  0  0  0  0  0
  -19.8280   -8.1097   21.1007 C   0  0  0  0  0  0  0  0  0  0  0  0
  -20.0242   -9.3892   21.8475 C   0  0  1  0  0  0  0  0  0  0  0  0
  -20.3998  -12.4235   21.5981 C   0  0  0  0  0  0  0  0  0  0  0  0
  -20.3882  -13.6082   22.5105 C   0  0  0  0  0  0  0  0  0  0  0  0
  -21.2323    4.1023   29.9744 F   0  0  0  0  0  0  0  0  0  0  0  0
  5  1  1  6
  2 11  1  0
  2 16  1  0
  4 10  2  0
  4 13  2  0
  4 42  1  6
  2  5  1  0
  5  8  1  0
  6 26  2  0
  7 24  1  0
  9 27  2  0
 11 14  1  0
 12 28  1  0
 12 29  1  0
 15 35  1  0
  3 16  2  0
 16 18  1  0
  4 17  1  0
 18 19  2  0
 18 23  1  0
 19 20  1  0
 20 21  2  0
 20 44  1  0
 21 22  1  0
 22 23  2  0
  7 23  1  0
 24 25  2  0
 24 27  1  0
  6 25  1  0
  9 26  1  0
 12 27  1  0
 30 28  1  6
 29 30  1  0
 30 31  1  0
 30 33  1  0
 31 32  1  0
 15 32  1  0
 33 34  1  0
 15 34  1  0
 36 35  1  1
 36 37  1  0
 36 39  1  0
 37 38  1  0
 38 41  1  0
 39 40  1  0
 40 41  1  0
 41 17  1  1
 42 43  1  0
M  END
$$$$
