7uj4
     RDKit          3D

 44 48  0  0  0  0  0  0  0  0999 V2000
  -24.1450    0.9156   22.7481 C   0  0  0  0  0  0  0  0  0  0  0  0
  -23.3196    1.7206   24.9156 N   0  0  0  0  0  0  0  0  0  0  0  0
  -23.7192    0.4727   26.7807 O   0  0  0  0  0  0  0  0  0  0  0  0
  -18.9165  -11.9491   22.3398 S   0  0  1  0  0  6  0  0  0  0  0  0
  -24.3815    1.0294   24.2237 C   0  0  1  0  0  0  0  0  0  0  0  0
  -17.8018    3.4261   23.5868 N   0  0  0  0  0  0  0  0  0  0  0  0
  -20.1969    1.3774   25.3836 O   0  0  0  0  0  0  0  0  0  0  0  0
  -25.6761    1.8136   24.4820 C   0  0  0  0  0  0  0  0  0  0  0  0
  -18.2656    1.5214   22.3783 N   0  0  0  0  0  0  0  0  0  0  0  0
  -17.9130  -12.4672   21.3480 O   0  0  0  0  0  0  0  0  0  0  0  0
  -22.5868    2.7820   24.2387 C   0  0  0  0  0  0  0  0  0  0  0  0
  -19.8034   -0.1770   23.1543 N   0  0  0  0  0  0  0  0  0  0  0  0
  -18.5537  -12.5120   23.6840 O   0  0  0  0  0  0  0  0  0  0  0  0
  -23.1318    4.1478   24.5443 C   0  0  0  0  0  0  0  0  0  0  0  0
  -19.5764   -5.0385   23.8630 N   0  0  0  0  0  0  0  0  0  0  0  0
  -23.0174    1.3502   26.2504 C   0  0  0  0  0  0  0  0  0  0  0  0
  -18.7956  -10.2382   22.4225 N   0  0  0  0  0  0  0  0  0  0  0  0
  -21.9165    2.0022   26.9311 C   0  0  0  0  0  0  0  0  0  0  0  0
  -22.1820    2.6752   28.1285 C   0  0  0  0  0  0  0  0  0  0  0  0
  -21.2108    3.2951   28.8691 C   0  0  0  0  0  0  0  0  0  0  0  0
  -19.8881    3.2785   28.4469 C   0  0  0  0  0  0  0  0  0  0  0  0
  -19.6138    2.6248   27.2787 C   0  0  0  0  0  0  0  0  0  0  0  0
  -20.6104    1.9903   26.5197 C   0  0  0  0  0  0  0  0  0  0  0  0
  -19.3143    1.8651   24.4455 C   0  0  0  0  0  0  0  0  0  0  0  0
  -18.6324    3.0628   24.5687 C   0  0  0  0  0  0  0  0  0  0  0  0
  -17.6090    2.6724   22.4934 C   0  0  0  0  0  0  0  0  0  0  0  0
  -19.1328    1.0573   23.3160 C   0  0  0  0  0  0  0  0  0  0  0  0
  -19.7920   -1.1955   22.1228 C   0  0  0  0  0  0  0  0  0  0  0  0
  -20.7574   -0.9978   23.8591 C   0  0  0  0  0  0  0  0  0  0  0  0
  -20.0676   -2.1934   23.2423 C   0  0  2  0  0  0  0  0  0  0  0  0
  -18.8657   -2.6891   23.9846 C   0  0  0  0  0  0  0  0  0  0  0  0
  -19.2514   -3.9315   24.7638 C   0  0  0  0  0  0  0  0  0  0  0  0
  -20.9144   -3.3625   22.8711 C   0  0  0  0  0  0  0  0  0  0  0  0
  -19.9273   -4.5350   22.6037 C   0  0  0  0  0  0  0  0  0  0  0  0
  -18.6108   -6.0360   24.0345 C   0  0  0  0  0  0  0  0  0  0  0  0
  -18.8316   -7.3715   23.3799 C   0  0  1  0  0  0  0  0  0  0  0  0
  -19.7545   -8.2021   24.2117 C   0  0  0  0  0  0  0  0  0  0  0  0
  -20.6963   -9.0812   23.4737 C   0  0  0  0  0  0  0  0  0  0  0  0
  -19.0698   -7.2526   21.9470 C   0  0  0  0  0  0  0  0  0  0  0  0
  -19.8630   -8.3695   21.3192 C   0  0  0  0  0  0  0  0  0  0  0  0
  -20.0338   -9.5640   22.2009 C   0  0  1  0  0  0  0  0  0  0  0  0
  -20.5184  -12.4862   21.8149 C   0  0  0  0  0  0  0  0  0  0  0  0
  -21.3560  -12.8105   23.0104 C   0  0  0  0  0  0  0  0  0  0  0  0
  -21.4751    3.9479   30.0350 F   0  0  0  0  0  0  0  0  0  0  0  0
  5  1  1  6
  2 11  1  0
  2 16  1  0
  4 10  2  0
  4 13  2  0
  4 42  1  6
  2  5  1  0
  5  8  1  0
  6 26  2  0
  7 24  1  0
  9 27  2  0
 11 14  1  0
 12 28  1  0
 12 29  1  0
 15 35  1  0
  3 16  2  0
 16 18  1  0
  4 17  1  0
 18 19  2  0
 18 23  1  0
 19 20  1  0
 20 21  2  0
 20 44  1  0
 21 22  1  0
 22 23  2  0
  7 23  1  0
 24 25  2  0
 24 27  1  0
  6 25  1  0
  9 26  1  0
 12 27  1  0
 30 28  1  6
 29 30  1  0
 30 31  1  0
 30 33  1  0
 31 32  1  0
 15 32  1  0
 33 34  1  0
 15 34  1  0
 36 35  1  1
 36 37  1  0
 36 39  1  0
 37 38  1  0
 38 41  1  0
 39 40  1  0
 40 41  1  0
 41 17  1  1
 42 43  1  0
M  END
$$$$
