ziftomenib.sdf
     RDKit          3D

 49 54  0  0  1  0  0  0  0  0999 V2000
  -21.4174  -12.3817   25.0310 N   0  0  0  0  0  0  0  0  0  0  0  0
  -21.3143  -11.3085   24.5868 C   0  0  0  0  0  0  0  0  0  0  0  0
  -21.2030   -9.9975   24.0427 C   0  0  0  0  0  0  0  0  0  0  0  0
  -20.7382   -9.6203   22.8214 N   0  0  0  0  0  0  0  0  0  0  0  0
  -20.2756  -10.5874   21.8591 C   0  0  0  0  0  0  0  0  0  0  0  0
  -18.9754  -11.2345   22.2591 C   0  0  1  0  0  0  0  0  0  0  0  0
  -19.0511  -12.6515   21.9850 N   0  0  0  0  0  0  0  0  0  0  0  0
  -20.0387  -13.3221   22.7683 C   0  0  0  0  0  0  0  0  0  0  0  0
  -21.1027  -13.9939   21.9303 C   0  0  0  0  0  0  0  0  0  0  0  0
  -20.5016  -14.9021   21.0139 N   0  0  0  0  0  0  0  0  0  0  0  0
  -20.0880  -16.4131   21.6765 S   0  0  1  0  0  6  0  0  0  0  0  0
  -20.3852  -16.5043   23.1667 O   0  0  0  0  0  0  0  0  0  0  0  0
  -20.9912  -17.6972   20.8290 C   0  0  0  0  0  0  0  0  0  0  0  0
  -18.6203  -16.7236   21.5213 O   0  0  0  0  0  0  0  0  0  0  0  0
  -19.5249  -14.2949   20.1801 C   0  0  0  0  0  0  0  0  0  0  0  0
  -18.9907  -12.9759   20.6090 C   0  0  0  0  0  0  0  0  0  0  0  0
  -17.8483  -10.5563   21.5652 C   0  0  0  0  0  0  0  0  0  0  0  0
  -21.5859   -8.8485   24.7438 C   0  0  0  0  0  0  0  0  0  0  0  0
  -21.3307   -7.8027   23.8956 C   0  0  0  0  0  0  0  0  0  0  0  0
  -20.8151   -8.2860   22.7288 C   0  0  0  0  0  0  0  0  0  0  0  0
  -20.4966   -7.3869   21.7310 C   0  0  0  0  0  0  0  0  0  0  0  0
  -20.7036   -6.0523   21.9401 C   0  0  0  0  0  0  0  0  0  0  0  0
  -21.2362   -5.5403   23.1468 C   0  0  0  0  0  0  0  0  0  0  0  0
  -21.3736   -4.0712   23.2690 C   0  0  0  0  0  0  0  0  0  0  0  0
  -20.6601   -3.2622   22.3792 N   0  0  0  0  0  0  0  0  0  0  0  0
  -19.2934   -2.9772   22.5356 C   0  0  0  0  0  0  0  0  0  0  0  0
  -18.9841   -1.9051   23.5265 C   0  0  0  0  0  0  0  0  0  0  0  0
  -19.7752   -0.6582   23.2735 C   0  0  2  0  0  0  0  0  0  0  0  0
  -19.7390    0.2073   24.4414 N   0  0  0  0  0  0  0  0  0  0  0  0
  -19.4441    1.5821   24.4346 C   0  0  0  0  0  0  0  0  0  0  0  0
  -19.6701    2.3815   25.5871 C   0  0  0  0  0  0  0  0  0  0  0  0
  -20.1621    1.9720   26.7708 C   0  0  0  0  0  0  0  0  0  0  0  0
  -20.3143    2.8810   27.7620 C   0  0  0  0  0  0  0  0  0  0  0  0
  -20.8284    2.7208   29.1441 C   0  0  0  0  0  0  0  0  0  0  0  0
  -22.1033    3.5369   29.2589 C   0  0  1  0  0  0  0  0  0  0  0  0
  -21.8519    4.8819   28.9859 F   0  0  0  0  0  0  0  0  0  0  0  0
  -23.0580    3.1130   28.3712 F   0  0  0  0  0  0  0  0  0  0  0  0
  -22.6174    3.4975   30.5276 F   0  0  0  0  0  0  0  0  0  0  0  0
  -19.7564    4.3714   27.0391 S   0  0  0  0  0  0  0  0  0  0  0  0
  -19.3445    3.6841   25.4278 C   0  0  0  0  0  0  0  0  0  0  0  0
  -18.8423    4.2474   24.3003 N   0  0  0  0  0  0  0  0  0  0  0  0
  -18.6384    3.4469   23.2137 C   0  0  0  0  0  0  0  0  0  0  0  0
  -18.1300    3.9432   22.0085 N   0  0  0  0  0  0  0  0  0  0  0  0
  -17.8448    2.9840   20.9369 C   0  0  0  0  0  0  0  0  0  0  0  0
  -18.9518    2.1563   23.3435 N   0  0  0  0  0  0  0  0  0  0  0  0
  -21.1961   -0.9546   22.9588 C   0  0  0  0  0  0  0  0  0  0  0  0
  -21.4064   -2.0734   21.9640 C   0  0  0  0  0  0  0  0  0  0  0  0
  -21.5512   -6.4339   24.1286 C   0  0  0  0  0  0  0  0  0  0  0  0
  -22.1670   -6.0011   25.4095 C   0  0  0  0  0  0  0  0  0  0  0  0
  1  2  3  0
  2  3  1  0
  3  4  1  0
  4  5  1  0
  5  6  1  0
  6  7  1  0
  7  8  1  0
  8  9  1  0
  9 10  1  0
 10 11  1  0
 11 12  2  0
 11 13  1  6
 11 14  2  0
 10 15  1  0
 15 16  1  0
  7 16  1  0
  6 17  1  6
  3 18  2  0
 18 19  1  0
 19 20  2  0
  4 20  1  0
 20 21  1  0
 21 22  2  0
 22 23  1  0
 23 24  1  0
 24 25  1  0
 25 26  1  0
 26 27  1  0
 27 28  1  0
 28 29  1  1
 29 30  1  0
 30 31  2  0
 31 32  1  0
 32 33  2  0
 33 34  1  0
 34 35  1  0
 35 36  1  6
 35 37  1  0
 35 38  1  0
 33 39  1  0
 31 40  1  0
 39 40  1  0
 40 41  2  0
 41 42  1  0
 42 43  1  0
 43 44  1  0
 42 45  2  0
 30 45  1  0
 28 46  1  0
 46 47  1  0
 25 47  1  0
 23 48  2  0
 19 48  1  0
 48 49  1  0
M  END
$$$$
