7uj4
     RDKit          3D

 44 48  0  0  0  0  0  0  0  0999 V2000
  -24.8553    1.5047   22.6363 C   0  0  0  0  0  0  0  0  0  0  0  0
  -23.7272    1.9081   24.7793 N   0  0  0  0  0  0  0  0  0  0  0  0
  -24.1667    0.6661   26.6393 O   0  0  0  0  0  0  0  0  0  0  0  0
  -20.5791  -11.6605   22.1154 S   0  0  1  0  0  6  0  0  0  0  0  0
  -24.8824    1.3402   24.1258 C   0  0  1  0  0  0  0  0  0  0  0  0
  -18.0630    3.5189   23.4492 N   0  0  0  0  0  0  0  0  0  0  0  0
  -20.6604    1.5692   25.0659 O   0  0  0  0  0  0  0  0  0  0  0  0
  -26.1199    2.0428   24.7023 C   0  0  0  0  0  0  0  0  0  0  0  0
  -18.3378    1.5148   22.3484 N   0  0  0  0  0  0  0  0  0  0  0  0
  -21.0237  -12.2353   23.4311 O   0  0  0  0  0  0  0  0  0  0  0  0
  -22.9050    2.8829   24.0753 C   0  0  0  0  0  0  0  0  0  0  0  0
  -19.9499   -0.1487   23.0449 N   0  0  0  0  0  0  0  0  0  0  0  0
  -21.8055  -11.4682   21.2701 O   0  0  0  0  0  0  0  0  0  0  0  0
  -22.9511    4.2441   24.7085 C   0  0  0  0  0  0  0  0  0  0  0  0
  -19.3935   -5.0253   23.3564 N   0  0  0  0  0  0  0  0  0  0  0  0
  -23.4220    1.5040   26.1036 C   0  0  0  0  0  0  0  0  0  0  0  0
  -19.8648  -10.1224   22.3849 N   0  0  0  0  0  0  0  0  0  0  0  0
  -22.2688    2.0779   26.7679 C   0  0  0  0  0  0  0  0  0  0  0  0
  -22.4468    2.6456   28.0340 C   0  0  0  0  0  0  0  0  0  0  0  0
  -21.4200    3.1840   28.7633 C   0  0  0  0  0  0  0  0  0  0  0  0
  -20.1264    3.1866   28.2585 C   0  0  0  0  0  0  0  0  0  0  0  0
  -19.9374    2.6354   27.0225 C   0  0  0  0  0  0  0  0  0  0  0  0
  -20.9910    2.0845   26.2753 C   0  0  0  0  0  0  0  0  0  0  0  0
  -19.6628    1.9994   24.2195 C   0  0  0  0  0  0  0  0  0  0  0  0
  -19.0163    3.2172   24.3358 C   0  0  0  0  0  0  0  0  0  0  0  0
  -17.7148    2.6850   22.4572 C   0  0  0  0  0  0  0  0  0  0  0  0
  -19.3203    1.1084   23.1947 C   0  0  0  0  0  0  0  0  0  0  0  0
  -20.0483   -1.0958   21.9517 C   0  0  0  0  0  0  0  0  0  0  0  0
  -20.7468   -1.0664   23.8218 C   0  0  0  0  0  0  0  0  0  0  0  0
  -20.1042   -2.1783   23.0241 C   0  0  2  0  0  0  0  0  0  0  0  0
  -18.7819   -2.6524   23.5419 C   0  0  0  0  0  0  0  0  0  0  0  0
  -18.9869   -3.9626   24.2772 C   0  0  0  0  0  0  0  0  0  0  0  0
  -20.9426   -3.3670   22.6986 C   0  0  0  0  0  0  0  0  0  0  0  0
  -19.9545   -4.4618   22.2031 C   0  0  0  0  0  0  0  0  0  0  0  0
  -18.3679   -5.9757   23.3097 C   0  0  0  0  0  0  0  0  0  0  0  0
  -18.7361   -7.4246   23.1490 C   0  0  1  0  0  0  0  0  0  0  0  0
  -17.8932   -8.0513   22.0860 C   0  0  0  0  0  0  0  0  0  0  0  0
  -17.4948   -9.4643   22.3078 C   0  0  0  0  0  0  0  0  0  0  0  0
  -18.8931   -8.1009   24.4305 C   0  0  0  0  0  0  0  0  0  0  0  0
  -18.6675   -9.5907   24.4177 C   0  0  0  0  0  0  0  0  0  0  0  0
  -18.6024  -10.1840   23.0475 C   0  0  1  0  0  0  0  0  0  0  0  0
  -19.4500  -12.8076   21.3811 C   0  0  0  0  0  0  0  0  0  0  0  0
  -19.7792  -14.1948   21.8321 C   0  0  0  0  0  0  0  0  0  0  0  0
  -21.5992    3.7344   29.9962 F   0  0  0  0  0  0  0  0  0  0  0  0
  5  1  1  6
  2 11  1  0
  2 16  1  0
  4 10  2  0
  4 13  2  0
  4 42  1  6
  2  5  1  0
  5  8  1  0
  6 26  2  0
  7 24  1  0
  9 27  2  0
 11 14  1  0
 12 28  1  0
 12 29  1  0
 15 35  1  0
  3 16  2  0
 16 18  1  0
  4 17  1  0
 18 19  2  0
 18 23  1  0
 19 20  1  0
 20 21  2  0
 20 44  1  0
 21 22  1  0
 22 23  2  0
  7 23  1  0
 24 25  2  0
 24 27  1  0
  6 25  1  0
  9 26  1  0
 12 27  1  0
 30 28  1  6
 29 30  1  0
 30 31  1  0
 30 33  1  0
 31 32  1  0
 15 32  1  0
 33 34  1  0
 15 34  1  0
 36 35  1  1
 36 37  1  0
 36 39  1  0
 37 38  1  0
 38 41  1  0
 39 40  1  0
 40 41  1  0
 41 17  1  6
 42 43  1  0
M  END
$$$$
