NS-C-142.sdf
     RDKit          3D

 25 28  0  0  1  0  0  0  0  0999 V2000
   -1.7705   -0.6741    0.7054 C   0  0  0  0  0  0  0  0  0  0  0  0
   -3.2322   -0.8037    0.4254 C   0  0  0  0  0  0  0  0  0  0  0  0
   -1.1489   -1.5687    1.2652 O   0  0  0  0  0  0  0  0  0  0  0  0
   -3.7758   -0.3330   -0.7158 C   0  0  0  0  0  0  0  0  0  0  0  0
   -5.1389   -0.5110   -0.9310 N   0  0  0  0  0  0  0  0  0  0  0  0
   -5.9875   -1.1526   -0.0432 C   0  0  0  0  0  0  0  0  0  0  0  0
   -5.4150   -1.6764    1.1464 C   0  0  0  0  0  0  0  0  0  0  0  0
   -4.0952   -1.5168    1.3702 C   0  0  0  0  0  0  0  0  0  0  0  0
   -5.9372   -0.1357   -1.9742 C   0  0  0  0  0  0  0  0  0  0  0  0
   -7.1789   -0.5001   -1.7447 N   0  0  0  0  0  0  0  0  0  0  0  0
   -7.2111   -1.1433   -0.5250 N   0  0  0  0  0  0  0  0  0  0  0  0
    3.9272   -1.1235   -0.3790 C   0  0  0  0  0  0  0  0  0  0  0  0
    5.2188   -1.6531   -0.4914 C   0  0  0  0  0  0  0  0  0  0  0  0
    6.3165   -0.8198   -0.3468 C   0  0  0  0  0  0  0  0  0  0  0  0
    6.1482    0.5290   -0.0952 C   0  0  0  0  0  0  0  0  0  0  0  0
    4.8566    1.0435    0.0144 C   0  0  0  0  0  0  0  0  0  0  0  0
    3.7001    0.2411   -0.1154 C   0  0  0  0  0  0  0  0  0  0  0  0
    7.5514   -1.3259   -0.4551 F   0  0  0  0  0  0  0  0  0  0  0  0
    2.4151    0.7393   -0.0232 N   0  0  0  0  0  0  0  0  0  0  0  0
    2.1097    2.1409    0.2460 C   0  0  0  0  0  0  0  0  0  0  0  0
    0.5897    2.2039    0.1483 C   0  0  0  0  0  0  0  0  0  0  0  0
    0.1499    0.8601    0.7179 C   0  0  2  0  0  0  0  0  0  0  0  0
    1.2337   -0.1074    0.1879 C   0  0  0  0  0  0  0  0  0  0  0  0
   -1.2145    0.5288    0.3353 N   0  0  0  0  0  0  0  0  0  0  0  0
    4.7515    2.3590    0.2665 F   0  0  0  0  0  0  0  0  0  0  0  0
  1  2  1  0
  1  3  2  0
  2  4  2  0
  4  5  1  0
  5  6  1  0
  6  7  1  0
  7  8  2  0
  8  2  1  0
  5  9  1  0
  9 10  2  0
 10 11  1  0
 11  6  2  0
 12 13  2  0
 13 14  1  0
 14 15  2  0
 15 16  1  0
 16 17  2  0
 17 12  1  0
 14 18  1  0
 17 19  1  0
 19 20  1  0
 20 21  1  0
 21 22  1  0
 22 23  1  0
 23 19  1  0
 22 24  1  6
  1 24  1  0
 16 25  1  0
M  END
$$$$
