ziftomenib.sdf
     RDKit          3D

 49 54  0  0  1  0  0  0  0  0999 V2000
    5.8329   -1.8285    3.2882 N   0  0  0  0  0  0  0  0  0  0  0  0
    4.9083   -1.6457    2.6137 C   0  0  0  0  0  0  0  0  0  0  0  0
    3.8232   -1.3765    1.7321 C   0  0  0  0  0  0  0  0  0  0  0  0
    3.9369   -0.8245    0.4768 N   0  0  0  0  0  0  0  0  0  0  0  0
    5.2037   -0.4838   -0.1678 C   0  0  0  0  0  0  0  0  0  0  0  0
    5.8672    0.8203    0.3644 C   0  0  1  0  0  0  0  0  0  0  0  0
    7.2108    1.0953   -0.2103 N   0  0  0  0  0  0  0  0  0  0  0  0
    7.9538    2.1534    0.5243 C   0  0  0  0  0  0  0  0  0  0  0  0
    9.1558    1.6611    1.3588 C   0  0  0  0  0  0  0  0  0  0  0  0
   10.1335    0.9365    0.5086 N   0  0  0  0  0  0  0  0  0  0  0  0
   11.4856    0.2735    1.2607 S   0  0  0  0  0  0  0  0  0  0  0  0
   11.9458    1.2143    2.2593 O   0  0  0  0  0  0  0  0  0  0  0  0
   10.8089   -1.1397    2.1138 C   0  0  0  0  0  0  0  0  0  0  0  0
   12.3701   -0.2186    0.2260 O   0  0  0  0  0  0  0  0  0  0  0  0
    9.5423    0.2232   -0.6503 C   0  0  0  0  0  0  0  0  0  0  0  0
    8.0559   -0.0998   -0.4039 C   0  0  0  0  0  0  0  0  0  0  0  0
    4.9392    2.0132    0.0572 C   0  0  0  0  0  0  0  0  0  0  0  0
    2.4873   -1.6194    1.9590 C   0  0  0  0  0  0  0  0  0  0  0  0
    1.7524   -1.2203    0.8034 C   0  0  0  0  0  0  0  0  0  0  0  0
    2.6870   -0.7221   -0.1110 C   0  0  0  0  0  0  0  0  0  0  0  0
    2.3055   -0.2340   -1.3661 C   0  0  0  0  0  0  0  0  0  0  0  0
    0.9517   -0.2705   -1.6960 C   0  0  0  0  0  0  0  0  0  0  0  0
   -0.0190   -0.7738   -0.8146 C   0  0  0  0  0  0  0  0  0  0  0  0
   -1.4592   -0.8085   -1.3113 C   0  0  0  0  0  0  0  0  0  0  0  0
   -1.9847    0.5259   -1.6453 N   0  0  0  0  0  0  0  0  0  0  0  0
   -2.2893    1.3461   -0.4656 C   0  0  0  0  0  0  0  0  0  0  0  0
   -3.5554    0.9199    0.2785 C   0  0  0  0  0  0  0  0  0  0  0  0
   -4.7601    0.8419   -0.6659 C   0  0  0  0  0  0  0  0  0  0  0  0
   -5.8879    0.2700    0.0757 N   0  0  0  0  0  0  0  0  0  0  0  0
   -7.1612    0.4254   -0.4740 C   0  0  0  0  0  0  0  0  0  0  0  0
   -8.2225   -0.4362   -0.1430 C   0  0  0  0  0  0  0  0  0  0  0  0
   -8.3399   -1.5731    0.7291 C   0  0  0  0  0  0  0  0  0  0  0  0
   -9.6081   -2.1200    0.7351 C   0  0  0  0  0  0  0  0  0  0  0  0
  -10.1100   -3.3077    1.5080 C   0  0  0  0  0  0  0  0  0  0  0  0
  -10.4129   -2.9893    2.9611 C   0  0  0  0  0  0  0  0  0  0  0  0
   -9.3127   -2.5547    3.6168 F   0  0  0  0  0  0  0  0  0  0  0  0
  -11.3764   -2.0523    3.0876 F   0  0  0  0  0  0  0  0  0  0  0  0
  -10.8460   -4.1016    3.6012 F   0  0  0  0  0  0  0  0  0  0  0  0
  -10.6597   -1.2601   -0.3087 S   0  0  0  0  0  0  0  0  0  0  0  0
   -9.4289   -0.1720   -0.7639 C   0  0  0  0  0  0  0  0  0  0  0  0
   -9.6803    0.8127   -1.6364 N   0  0  0  0  0  0  0  0  0  0  0  0
   -8.6240    1.5850   -1.8823 C   0  0  0  0  0  0  0  0  0  0  0  0
   -8.8501    2.6221   -2.7821 N   0  0  0  0  0  0  0  0  0  0  0  0
   -8.1723    3.8522   -2.4366 C   0  0  0  0  0  0  0  0  0  0  0  0
   -7.4057    1.4306   -1.3430 N   0  0  0  0  0  0  0  0  0  0  0  0
   -4.4199   -0.0239   -1.8829 C   0  0  0  0  0  0  0  0  0  0  0  0
   -3.1371    0.4623   -2.5514 C   0  0  0  0  0  0  0  0  0  0  0  0
    0.3695   -1.2550    0.4652 C   0  0  0  0  0  0  0  0  0  0  0  0
   -0.6585   -1.7947    1.4249 C   0  0  0  0  0  0  0  0  0  0  0  0
  1  2  3  0
  2  3  1  0
  3  4  1  0
  4  5  1  0
  5  6  1  0
  6  7  1  0
  7  8  1  0
  8  9  1  0
  9 10  1  0
 10 11  1  0
 11 12  2  0
 11 13  1  0
 11 14  2  0
 10 15  1  0
 15 16  1  0
  7 16  1  0
  6 17  1  6
  3 18  2  0
 18 19  1  0
 19 20  2  0
  4 20  1  0
 20 21  1  0
 21 22  2  0
 22 23  1  0
 23 24  1  0
 24 25  1  0
 25 26  1  0
 26 27  1  0
 27 28  1  0
 28 29  1  0
 29 30  1  0
 30 31  2  0
 31 32  1  0
 32 33  2  0
 33 34  1  0
 34 35  1  0
 35 36  1  0
 35 37  1  0
 35 38  1  0
 33 39  1  0
 31 40  1  0
 39 40  1  0
 40 41  2  0
 41 42  1  0
 42 43  1  0
 43 44  1  0
 42 45  2  0
 30 45  1  0
 28 46  1  0
 46 47  1  0
 25 47  1  0
 23 48  2  0
 19 48  1  0
 48 49  1  0
M  END
$$$$
