NS-C-142.sdf
     RDKit          3D

 25 28  0  0  1  0  0  0  0  0999 V2000
  -20.0225   -1.8921   23.5197 C   0  0  0  0  0  0  0  0  0  0  0  0
  -19.6320   -3.2857   23.3049 C   0  0  0  0  0  0  0  0  0  0  0  0
  -21.0973   -1.6586   24.1680 O   0  0  0  0  0  0  0  0  0  0  0  0
  -18.8866   -3.6274   22.1883 C   0  0  0  0  0  0  0  0  0  0  0  0
  -18.4688   -4.8489   21.8763 N   0  0  0  0  0  0  0  0  0  0  0  0
  -18.8082   -5.8545   22.7388 C   0  0  0  0  0  0  0  0  0  0  0  0
  -19.5478   -5.6033   23.8737 C   0  0  0  0  0  0  0  0  0  0  0  0
  -19.9647   -4.3005   24.1593 C   0  0  0  0  0  0  0  0  0  0  0  0
  -17.7588   -5.4200   20.8874 C   0  0  0  0  0  0  0  0  0  0  0  0
  -17.6536   -6.7354   21.1160 N   0  0  0  0  0  0  0  0  0  0  0  0
  -18.2964   -6.9941   22.2478 N   0  0  0  0  0  0  0  0  0  0  0  0
  -20.0762    4.2396   26.2794 C   0  0  0  0  0  0  0  0  0  0  0  0
  -20.4525    4.9584   27.4132 C   0  0  0  0  0  0  0  0  0  0  0  0
  -20.9735    4.3136   28.5196 C   0  0  0  0  0  0  0  0  0  0  0  0
  -21.1026    2.9461   28.4528 C   0  0  0  0  0  0  0  0  0  0  0  0
  -20.7326    2.2218   27.3331 C   0  0  0  0  0  0  0  0  0  0  0  0
  -20.2116    2.8675   26.2268 C   0  0  0  0  0  0  0  0  0  0  0  0
  -21.3442    5.0113   29.6336 F   0  0  0  0  0  0  0  0  0  0  0  0
  -19.8288    2.1197   25.0688 N   0  0  0  0  0  0  0  0  0  0  0  0
  -19.0908    2.7336   23.9748 C   0  0  0  0  0  0  0  0  0  0  0  0
  -18.6106    1.5598   23.1660 C   0  0  0  0  0  0  0  0  0  0  0  0
  -19.7500    0.5470   23.3459 C   0  0  2  0  0  0  0  0  0  0  0  0
  -20.0831    0.7219   24.7888 C   0  0  0  0  0  0  0  0  0  0  0  0
  -19.2669   -0.7951   23.0440 N   0  0  0  0  0  0  0  0  0  0  0  0
  -20.8650    0.8600   27.2760 F   0  0  0  0  0  0  0  0  0  0  0  0
  1  2  1  0
  1  3  2  0
  2  4  2  0
  4  5  1  0
  5  6  1  0
  6  7  1  0
  7  8  2  0
  8  2  1  0
  5  9  1  0
  9 10  2  0
 10 11  1  0
 11  6  2  0
 12 13  2  0
 13 14  1  0
 14 15  2  0
 15 16  1  0
 16 17  2  0
 17 12  1  0
 14 18  1  0
 17 19  1  0
 19 20  1  0
 20 21  1  0
 21 22  1  0
 22 23  1  0
 23 19  1  0
 22 24  1  1
  1 24  1  0
 16 25  1  0
M  END
$$$$
