NS-C-142.sdf
     RDKit          3D

 25 28  0  0  1  0  0  0  0  0999 V2000
  -20.2426   -2.3522   23.5878 C   0  0  0  0  0  0  0  0  0  0  0  0
  -19.8701   -3.7566   23.4150 C   0  0  0  0  0  0  0  0  0  0  0  0
  -21.3842   -2.0876   24.0942 O   0  0  0  0  0  0  0  0  0  0  0  0
  -19.0798   -4.1319   22.3409 C   0  0  0  0  0  0  0  0  0  0  0  0
  -18.6720   -5.3664   22.0695 N   0  0  0  0  0  0  0  0  0  0  0  0
  -19.0717   -6.3501   22.9315 C   0  0  0  0  0  0  0  0  0  0  0  0
  -19.8589   -6.0650   24.0255 C   0  0  0  0  0  0  0  0  0  0  0  0
  -20.2629   -4.7497   24.2693 C   0  0  0  0  0  0  0  0  0  0  0  0
  -17.9276   -5.9682   21.1251 C   0  0  0  0  0  0  0  0  0  0  0  0
  -17.8593   -7.2811   21.3803 N   0  0  0  0  0  0  0  0  0  0  0  0
  -18.5599   -7.5076   22.4844 N   0  0  0  0  0  0  0  0  0  0  0  0
  -19.7827    3.9571   26.1969 C   0  0  0  0  0  0  0  0  0  0  0  0
  -20.0505    4.7566   27.3072 C   0  0  0  0  0  0  0  0  0  0  0  0
  -20.6120    4.2168   28.4495 C   0  0  0  0  0  0  0  0  0  0  0  0
  -20.8916    2.8703   28.4418 C   0  0  0  0  0  0  0  0  0  0  0  0
  -20.6304    2.0665   27.3459 C   0  0  0  0  0  0  0  0  0  0  0  0
  -20.0687    2.6073   26.2037 C   0  0  0  0  0  0  0  0  0  0  0  0
  -20.8770    4.9939   29.5407 F   0  0  0  0  0  0  0  0  0  0  0  0
  -19.7983    1.7773   25.0703 N   0  0  0  0  0  0  0  0  0  0  0  0
  -19.1958    2.3142   23.8591 C   0  0  0  0  0  0  0  0  0  0  0  0
  -18.7819    1.0875   23.0931 C   0  0  0  0  0  0  0  0  0  0  0  0
  -19.8741    0.0777   23.4723 C   0  0  2  0  0  0  0  0  0  0  0  0
  -20.0526    0.3591   24.9257 C   0  0  0  0  0  0  0  0  0  0  0  0
  -19.3991   -1.2777   23.2211 N   0  0  0  0  0  0  0  0  0  0  0  0
  -20.9124    0.7265   27.3478 F   0  0  0  0  0  0  0  0  0  0  0  0
  1  2  1  0
  1  3  2  0
  2  4  2  0
  4  5  1  0
  5  6  1  0
  6  7  1  0
  7  8  2  0
  8  2  1  0
  5  9  1  0
  9 10  2  0
 10 11  1  0
 11  6  2  0
 12 13  2  0
 13 14  1  0
 14 15  2  0
 15 16  1  0
 16 17  2  0
 17 12  1  0
 14 18  1  0
 17 19  1  0
 19 20  1  0
 20 21  1  0
 21 22  1  0
 22 23  1  0
 23 19  1  0
 22 24  1  1
  1 24  1  0
 16 25  1  0
M  END
$$$$
