7uj4
     RDKit          3D

 44 48  0  0  0  0  0  0  0  0999 V2000
  -25.3051    1.6459   23.3188 C   0  0  0  0  0  0  0  0  0  0  0  0
  -24.1511    2.2146   25.4097 N   0  0  0  0  0  0  0  0  0  0  0  0
  -23.8225    0.3880   26.7330 O   0  0  0  0  0  0  0  0  0  0  0  0
  -19.3172  -12.1502   22.7955 S   0  0  1  0  0  6  0  0  0  0  0  0
  -25.3033    1.5790   24.8160 C   0  0  1  0  0  0  0  0  0  0  0  0
  -17.8404    3.0475   23.5794 N   0  0  0  0  0  0  0  0  0  0  0  0
  -20.7185    1.5396   25.1932 O   0  0  0  0  0  0  0  0  0  0  0  0
  -26.5473    2.2898   25.3680 C   0  0  0  0  0  0  0  0  0  0  0  0
  -18.3446    1.0417   22.5666 N   0  0  0  0  0  0  0  0  0  0  0  0
  -19.9825  -12.3730   24.1247 O   0  0  0  0  0  0  0  0  0  0  0  0
  -23.7727    3.5583   24.9941 C   0  0  0  0  0  0  0  0  0  0  0  0
  -20.1817   -0.3591   23.2834 N   0  0  0  0  0  0  0  0  0  0  0  0
  -20.1654  -12.8155   21.7497 O   0  0  0  0  0  0  0  0  0  0  0  0
  -22.6756    3.5596   23.9682 C   0  0  0  0  0  0  0  0  0  0  0  0
  -20.1766   -5.1576   22.2051 N   0  0  0  0  0  0  0  0  0  0  0  0
  -23.4132    1.5114   26.3954 C   0  0  0  0  0  0  0  0  0  0  0  0
  -19.2740  -10.4664   22.4619 N   0  0  0  0  0  0  0  0  0  0  0  0
  -22.2278    2.1250   26.9600 C   0  0  0  0  0  0  0  0  0  0  0  0
  -22.3356    2.7554   28.2042 C   0  0  0  0  0  0  0  0  0  0  0  0
  -21.2722    3.3362   28.8430 C   0  0  0  0  0  0  0  0  0  0  0  0
  -20.0108    3.3206   28.2626 C   0  0  0  0  0  0  0  0  0  0  0  0
  -19.8905    2.7083   27.0469 C   0  0  0  0  0  0  0  0  0  0  0  0
  -20.9815    2.1140   26.3925 C   0  0  0  0  0  0  0  0  0  0  0  0
  -19.6485    1.7916   24.3635 C   0  0  0  0  0  0  0  0  0  0  0  0
  -18.8508    2.9193   24.4446 C   0  0  0  0  0  0  0  0  0  0  0  0
  -17.5762    2.1248   22.6416 C   0  0  0  0  0  0  0  0  0  0  0  0
  -19.3966    0.8114   23.3955 C   0  0  0  0  0  0  0  0  0  0  0  0
  -20.8837   -0.9931   22.1848 C   0  0  0  0  0  0  0  0  0  0  0  0
  -20.6528   -1.4377   24.1174 C   0  0  0  0  0  0  0  0  0  0  0  0
  -20.5882   -2.3139   22.8872 C   0  0  2  0  0  0  0  0  0  0  0  0
  -19.2478   -2.9176   22.6039 C   0  0  0  0  0  0  0  0  0  0  0  0
  -19.2654   -4.3706   23.0374 C   0  0  0  0  0  0  0  0  0  0  0  0
  -21.6283   -3.3712   22.7381 C   0  0  0  0  0  0  0  0  0  0  0  0
  -21.1200   -4.3117   21.6077 C   0  0  0  0  0  0  0  0  0  0  0  0
  -19.4142   -6.0739   21.4729 C   0  0  0  0  0  0  0  0  0  0  0  0
  -19.2907   -7.4813   21.9875 C   0  0  1  0  0  0  0  0  0  0  0  0
  -17.9699   -8.0567   21.5904 C   0  0  0  0  0  0  0  0  0  0  0  0
  -17.3257   -8.9670   22.5707 C   0  0  0  0  0  0  0  0  0  0  0  0
  -19.7411   -7.6070   23.3679 C   0  0  0  0  0  0  0  0  0  0  0  0
  -19.1389   -8.7432   24.1534 C   0  0  0  0  0  0  0  0  0  0  0  0
  -18.3964   -9.7343   23.3167 C   0  0  1  0  0  0  0  0  0  0  0  0
  -17.6995  -12.8619   22.8774 C   0  0  0  0  0  0  0  0  0  0  0  0
  -17.2951  -13.3470   21.5220 C   0  0  0  0  0  0  0  0  0  0  0  0
  -21.3829    3.9476   30.0550 F   0  0  0  0  0  0  0  0  0  0  0  0
  5  1  1  6
  2 11  1  0
  2 16  1  0
  4 10  2  0
  4 13  2  0
  4 42  1  1
  2  5  1  0
  5  8  1  0
  6 26  2  0
  7 24  1  0
  9 27  2  0
 11 14  1  0
 12 28  1  0
 12 29  1  0
 15 35  1  0
  3 16  2  0
 16 18  1  0
  4 17  1  0
 18 19  2  0
 18 23  1  0
 19 20  1  0
 20 21  2  0
 20 44  1  0
 21 22  1  0
 22 23  2  0
  7 23  1  0
 24 25  2  0
 24 27  1  0
  6 25  1  0
  9 26  1  0
 12 27  1  0
 30 28  1  6
 29 30  1  0
 30 31  1  0
 30 33  1  0
 31 32  1  0
 15 32  1  0
 33 34  1  0
 15 34  1  0
 36 35  1  1
 36 37  1  0
 36 39  1  0
 37 38  1  0
 38 41  1  0
 39 40  1  0
 40 41  1  0
 41 17  1  6
 42 43  1  0
M  END
$$$$
