NS-C-142.sdf
     RDKit          3D

 25 28  0  0  1  0  0  0  0  0999 V2000
  -19.9489   -1.8672   23.5833 C   0  0  0  0  0  0  0  0  0  0  0  0
  -19.6152   -3.2795   23.3962 C   0  0  0  0  0  0  0  0  0  0  0  0
  -21.0225   -1.5777   24.2106 O   0  0  0  0  0  0  0  0  0  0  0  0
  -18.8072   -3.6615   22.3378 C   0  0  0  0  0  0  0  0  0  0  0  0
  -18.4303   -4.9034   22.0561 N   0  0  0  0  0  0  0  0  0  0  0  0
  -18.8841   -5.8884   22.8894 C   0  0  0  0  0  0  0  0  0  0  0  0
  -19.6925   -5.5970   23.9663 C   0  0  0  0  0  0  0  0  0  0  0  0
  -20.0623   -4.2739   24.2219 C   0  0  0  0  0  0  0  0  0  0  0  0
  -17.6787   -5.5125   21.1221 C   0  0  0  0  0  0  0  0  0  0  0  0
  -17.6582   -6.8310   21.3560 N   0  0  0  0  0  0  0  0  0  0  0  0
  -18.3961   -7.0538   22.4363 N   0  0  0  0  0  0  0  0  0  0  0  0
  -20.1621    4.3123   26.1270 C   0  0  0  0  0  0  0  0  0  0  0  0
  -20.5834    5.0626   27.2240 C   0  0  0  0  0  0  0  0  0  0  0  0
  -20.9946    4.4430   28.3895 C   0  0  0  0  0  0  0  0  0  0  0  0
  -20.9700    3.0683   28.4183 C   0  0  0  0  0  0  0  0  0  0  0  0
  -20.5540    2.3129   27.3360 C   0  0  0  0  0  0  0  0  0  0  0  0
  -20.1428    2.9334   26.1705 C   0  0  0  0  0  0  0  0  0  0  0  0
  -21.4085    5.1716   29.4680 F   0  0  0  0  0  0  0  0  0  0  0  0
  -19.7125    2.1534   25.0510 N   0  0  0  0  0  0  0  0  0  0  0  0
  -18.8715    2.7189   24.0064 C   0  0  0  0  0  0  0  0  0  0  0  0
  -18.3883    1.5138   23.2467 C   0  0  0  0  0  0  0  0  0  0  0  0
  -19.5821    0.5550   23.3551 C   0  0  2  0  0  0  0  0  0  0  0  0
  -20.0090    0.7644   24.7684 C   0  0  0  0  0  0  0  0  0  0  0  0
  -19.1397   -0.8112   23.1030 N   0  0  0  0  0  0  0  0  0  0  0  0
  -20.5329    0.9442   27.3742 F   0  0  0  0  0  0  0  0  0  0  0  0
  1  2  1  0
  1  3  2  0
  2  4  2  0
  4  5  1  0
  5  6  1  0
  6  7  1  0
  7  8  2  0
  8  2  1  0
  5  9  1  0
  9 10  2  0
 10 11  1  0
 11  6  2  0
 12 13  2  0
 13 14  1  0
 14 15  2  0
 15 16  1  0
 16 17  2  0
 17 12  1  0
 14 18  1  0
 17 19  1  0
 19 20  1  0
 20 21  1  0
 21 22  1  0
 22 23  1  0
 23 19  1  0
 22 24  1  1
  1 24  1  0
 16 25  1  0
M  END
$$$$
