NS-C-142.sdf
     RDKit          3D

 25 28  0  0  1  0  0  0  0  0999 V2000
  -19.9681   -1.9551   22.3643 C   0  0  0  0  0  0  0  0  0  0  0  0
  -19.8423   -3.3574   21.9661 C   0  0  0  0  0  0  0  0  0  0  0  0
  -20.3235   -1.1052   21.4803 O   0  0  0  0  0  0  0  0  0  0  0  0
  -19.0876   -4.2266   22.7367 C   0  0  0  0  0  0  0  0  0  0  0  0
  -18.8932   -5.5168   22.4887 N   0  0  0  0  0  0  0  0  0  0  0  0
  -19.4947   -6.0262   21.3710 C   0  0  0  0  0  0  0  0  0  0  0  0
  -20.2632   -5.2321   20.5483 C   0  0  0  0  0  0  0  0  0  0  0  0
  -20.4385   -3.8793   20.8514 C   0  0  0  0  0  0  0  0  0  0  0  0
  -18.2287   -6.5364   23.0606 C   0  0  0  0  0  0  0  0  0  0  0  0
  -18.4034   -7.6470   22.3328 N   0  0  0  0  0  0  0  0  0  0  0  0
  -19.1773   -7.3286   21.3027 N   0  0  0  0  0  0  0  0  0  0  0  0
  -21.0916    1.6618   27.9343 C   0  0  0  0  0  0  0  0  0  0  0  0
  -21.4081    2.4174   29.0623 C   0  0  0  0  0  0  0  0  0  0  0  0
  -20.9659    3.7213   29.1879 C   0  0  0  0  0  0  0  0  0  0  0  0
  -20.2080    4.2343   28.1614 C   0  0  0  0  0  0  0  0  0  0  0  0
  -19.8875    3.4941   27.0369 C   0  0  0  0  0  0  0  0  0  0  0  0
  -20.3302    2.1899   26.9121 C   0  0  0  0  0  0  0  0  0  0  0  0
  -21.2720    4.4674   30.2901 F   0  0  0  0  0  0  0  0  0  0  0  0
  -19.9994    1.4239   25.7499 N   0  0  0  0  0  0  0  0  0  0  0  0
  -19.1592    1.9672   24.6929 C   0  0  0  0  0  0  0  0  0  0  0  0
  -18.7929    0.7602   23.8732 C   0  0  0  0  0  0  0  0  0  0  0  0
  -20.0479   -0.1151   23.9958 C   0  0  2  0  0  0  0  0  0  0  0  0
  -20.4056    0.0710   25.4313 C   0  0  0  0  0  0  0  0  0  0  0  0
  -19.7150   -1.4988   23.6790 N   0  0  0  0  0  0  0  0  0  0  0  0
  -19.1321    4.0138   26.0197 F   0  0  0  0  0  0  0  0  0  0  0  0
  1  2  1  0
  1  3  2  0
  2  4  2  0
  4  5  1  0
  5  6  1  0
  6  7  1  0
  7  8  2  0
  8  2  1  0
  5  9  1  0
  9 10  2  0
 10 11  1  0
 11  6  2  0
 12 13  2  0
 13 14  1  0
 14 15  2  0
 15 16  1  0
 16 17  2  0
 17 12  1  0
 14 18  1  0
 17 19  1  0
 19 20  1  0
 20 21  1  0
 21 22  1  0
 22 23  1  0
 23 19  1  0
 22 24  1  1
  1 24  1  0
 16 25  1  0
M  END
$$$$
