ziftomenib.sdf
     RDKit          3D

 49 54  0  0  1  0  0  0  0  0999 V2000
  -17.4685  -12.3967   22.0505 N   0  0  0  0  0  0  0  0  0  0  0  0
  -18.0744  -11.4210   22.2518 C   0  0  0  0  0  0  0  0  0  0  0  0
  -18.8156  -10.2334   22.5119 C   0  0  0  0  0  0  0  0  0  0  0  0
  -19.9914  -10.0944   23.1813 N   0  0  0  0  0  0  0  0  0  0  0  0
  -20.6699  -11.2275   23.7568 C   0  0  0  0  0  0  0  0  0  0  0  0
  -22.0886  -11.3684   23.2703 C   0  0  1  0  0  0  0  0  0  0  0  0
  -22.3305  -12.7492   22.9189 N   0  0  0  0  0  0  0  0  0  0  0  0
  -23.4585  -13.3095   23.5914 C   0  0  0  0  0  0  0  0  0  0  0  0
  -24.5319  -13.7943   22.6435 C   0  0  0  0  0  0  0  0  0  0  0  0
  -23.9858  -14.7381   21.7287 N   0  0  0  0  0  0  0  0  0  0  0  0
  -23.8322  -16.3174   22.3416 S   0  0  1  0  0  6  0  0  0  0  0  0
  -23.9598  -16.3761   23.8574 O   0  0  0  0  0  0  0  0  0  0  0  0
  -25.0875  -17.3573   21.6167 C   0  0  0  0  0  0  0  0  0  0  0  0
  -22.4962  -16.9330   22.0086 O   0  0  0  0  0  0  0  0  0  0  0  0
  -22.8730  -14.2370   21.0018 C   0  0  0  0  0  0  0  0  0  0  0  0
  -22.2036  -13.0223   21.5362 C   0  0  0  0  0  0  0  0  0  0  0  0
  -23.0227  -10.8477   24.3038 C   0  0  0  0  0  0  0  0  0  0  0  0
  -18.3992   -8.9682   22.0828 C   0  0  0  0  0  0  0  0  0  0  0  0
  -19.3634   -8.0993   22.5227 C   0  0  0  0  0  0  0  0  0  0  0  0
  -20.3269   -8.7974   23.1900 C   0  0  0  0  0  0  0  0  0  0  0  0
  -21.3909   -8.0989   23.7241 C   0  0  0  0  0  0  0  0  0  0  0  0
  -21.4481   -6.7424   23.5688 C   0  0  0  0  0  0  0  0  0  0  0  0
  -20.4553   -6.0088   22.8773 C   0  0  0  0  0  0  0  0  0  0  0  0
  -20.6513   -4.5478   22.7388 C   0  0  0  0  0  0  0  0  0  0  0  0
  -19.6168   -3.7899   22.1812 N   0  0  0  0  0  0  0  0  0  0  0  0
  -18.3782   -3.6051   22.8177 C   0  0  0  0  0  0  0  0  0  0  0  0
  -18.3688   -2.5611   23.8839 C   0  0  0  0  0  0  0  0  0  0  0  0
  -18.9342   -1.2594   23.4037 C   0  0  2  0  0  0  0  0  0  0  0  0
  -19.2560   -0.4023   24.5333 N   0  0  0  0  0  0  0  0  0  0  0  0
  -19.0651    0.9897   24.5872 C   0  0  0  0  0  0  0  0  0  0  0  0
  -19.2992    1.7112   25.7884 C   0  0  0  0  0  0  0  0  0  0  0  0
  -19.7066    1.2071   26.9676 C   0  0  0  0  0  0  0  0  0  0  0  0
  -19.8824    2.0514   28.0107 C   0  0  0  0  0  0  0  0  0  0  0  0
  -20.3218    1.7839   29.4021 C   0  0  0  0  0  0  0  0  0  0  0  0
  -21.4589    2.7389   29.7177 C   0  0  1  0  0  0  0  0  0  0  0  0
  -21.8892    2.5722   31.0345 F   0  0  0  0  0  0  0  0  0  0  0  0
  -21.0755    4.0474   29.5772 F   0  0  0  0  0  0  0  0  0  0  0  0
  -22.5530    2.5019   28.9288 F   0  0  0  0  0  0  0  0  0  0  0  0
  -19.4697    3.6143   27.3457 S   0  0  0  0  0  0  0  0  0  0  0  0
  -19.0790    3.0413   25.6851 C   0  0  0  0  0  0  0  0  0  0  0  0
  -18.6703    3.6967   24.5697 N   0  0  0  0  0  0  0  0  0  0  0  0
  -18.4553    2.9691   23.4350 C   0  0  0  0  0  0  0  0  0  0  0  0
  -18.0389    3.5620   22.2383 N   0  0  0  0  0  0  0  0  0  0  0  0
  -17.8780    2.6988   21.0641 C   0  0  0  0  0  0  0  0  0  0  0  0
  -18.6656    1.6533   23.5090 N   0  0  0  0  0  0  0  0  0  0  0  0
  -20.1681   -1.4513   22.5997 C   0  0  0  0  0  0  0  0  0  0  0  0
  -20.0869   -2.5490   21.5633 C   0  0  0  0  0  0  0  0  0  0  0  0
  -19.4048   -6.7042   22.3534 C   0  0  0  0  0  0  0  0  0  0  0  0
  -18.2843   -6.0194   21.6585 C   0  0  0  0  0  0  0  0  0  0  0  0
  1  2  3  0
  2  3  1  0
  3  4  1  0
  4  5  1  0
  5  6  1  0
  6  7  1  0
  7  8  1  0
  8  9  1  0
  9 10  1  0
 10 11  1  0
 11 12  2  0
 11 13  1  6
 11 14  2  0
 10 15  1  0
 15 16  1  0
  7 16  1  0
  6 17  1  1
  3 18  2  0
 18 19  1  0
 19 20  2  0
  4 20  1  0
 20 21  1  0
 21 22  2  0
 22 23  1  0
 23 24  1  0
 24 25  1  0
 25 26  1  0
 26 27  1  0
 27 28  1  0
 28 29  1  1
 29 30  1  0
 30 31  2  0
 31 32  1  0
 32 33  2  0
 33 34  1  0
 34 35  1  0
 35 36  1  1
 35 37  1  0
 35 38  1  0
 33 39  1  0
 31 40  1  0
 39 40  1  0
 40 41  2  0
 41 42  1  0
 42 43  1  0
 43 44  1  0
 42 45  2  0
 30 45  1  0
 28 46  1  0
 46 47  1  0
 25 47  1  0
 23 48  2  0
 19 48  1  0
 48 49  1  0
M  END
$$$$
