ziftomenib.sdf
     RDKit          3D

 49 54  0  0  1  0  0  0  0  0999 V2000
  -17.2802  -12.5484   22.9154 N   0  0  0  0  0  0  0  0  0  0  0  0
  -17.9268  -11.5791   22.9602 C   0  0  0  0  0  0  0  0  0  0  0  0
  -18.7273  -10.4025   23.0080 C   0  0  0  0  0  0  0  0  0  0  0  0
  -19.9881  -10.2511   23.4951 N   0  0  0  0  0  0  0  0  0  0  0  0
  -20.7110  -11.3554   24.0725 C   0  0  0  0  0  0  0  0  0  0  0  0
  -22.0822  -11.5332   23.4746 C   0  0  1  0  0  0  0  0  0  0  0  0
  -22.1986  -12.8769   22.9556 N   0  0  0  0  0  0  0  0  0  0  0  0
  -22.7481  -13.7968   23.8993 C   0  0  0  0  0  0  0  0  0  0  0  0
  -24.0299  -14.4403   23.4210 C   0  0  0  0  0  0  0  0  0  0  0  0
  -23.8151  -15.0870   22.1713 N   0  0  0  0  0  0  0  0  0  0  0  0
  -23.0983  -16.6257   22.2795 S   0  0  1  0  0  6  0  0  0  0  0  0
  -22.4121  -16.8633   23.6175 O   0  0  0  0  0  0  0  0  0  0  0  0
  -24.3472  -17.8774   22.0419 C   0  0  0  0  0  0  0  0  0  0  0  0
  -22.0440  -16.8415   21.2228 O   0  0  0  0  0  0  0  0  0  0  0  0
  -23.2933  -14.2213   21.1731 C   0  0  0  0  0  0  0  0  0  0  0  0
  -22.6912  -12.9418   21.6306 C   0  0  0  0  0  0  0  0  0  0  0  0
  -23.1151  -11.1993   24.4914 C   0  0  0  0  0  0  0  0  0  0  0  0
  -18.2877   -9.1640   22.5273 C   0  0  0  0  0  0  0  0  0  0  0  0
  -19.3258   -8.2977   22.7508 C   0  0  0  0  0  0  0  0  0  0  0  0
  -20.3548   -8.9719   23.3406 C   0  0  0  0  0  0  0  0  0  0  0  0
  -21.5004   -8.2708   23.6588 C   0  0  0  0  0  0  0  0  0  0  0  0
  -21.5701   -6.9359   23.3751 C   0  0  0  0  0  0  0  0  0  0  0  0
  -20.5098   -6.2273   22.7623 C   0  0  0  0  0  0  0  0  0  0  0  0
  -20.7219   -4.7922   22.4668 C   0  0  0  0  0  0  0  0  0  0  0  0
  -19.6393   -4.0461   21.9905 N   0  0  0  0  0  0  0  0  0  0  0  0
  -18.4921   -3.7900   22.7599 C   0  0  0  0  0  0  0  0  0  0  0  0
  -18.6322   -2.6799   23.7471 C   0  0  0  0  0  0  0  0  0  0  0  0
  -19.1556   -1.4262   23.1155 C   0  0  2  0  0  0  0  0  0  0  0  0
  -19.6290   -0.5066   24.1375 N   0  0  0  0  0  0  0  0  0  0  0  0
  -19.5247    0.8949   24.0916 C   0  0  0  0  0  0  0  0  0  0  0  0
  -19.8484    1.6871   25.2257 C   0  0  0  0  0  0  0  0  0  0  0  0
  -20.2701    1.2468   26.4253 C   0  0  0  0  0  0  0  0  0  0  0  0
  -20.5369    2.1532   27.3944 C   0  0  0  0  0  0  0  0  0  0  0  0
  -21.0130    1.9621   28.7862 C   0  0  0  0  0  0  0  0  0  0  0  0
  -22.1679    2.9208   29.0137 C   0  0  1  0  0  0  0  0  0  0  0  0
  -22.6897    2.7652   30.2985 F   0  0  0  0  0  0  0  0  0  0  0  0
  -21.7735    4.2277   28.8901 F   0  0  0  0  0  0  0  0  0  0  0  0
  -23.2044    2.6786   28.1521 F   0  0  0  0  0  0  0  0  0  0  0  0
  -20.1938    3.6856   26.6267 S   0  0  0  0  0  0  0  0  0  0  0  0
  -19.7051    3.0171   25.0288 C   0  0  0  0  0  0  0  0  0  0  0  0
  -19.2937    3.6127   23.8813 N   0  0  0  0  0  0  0  0  0  0  0  0
  -18.9913    2.8182   22.8134 C   0  0  0  0  0  0  0  0  0  0  0  0
  -18.5654    3.3461   21.5899 N   0  0  0  0  0  0  0  0  0  0  0  0
  -18.2447    2.4063   20.5112 C   0  0  0  0  0  0  0  0  0  0  0  0
  -19.1245    1.5009   22.9803 N   0  0  0  0  0  0  0  0  0  0  0  0
  -20.2773   -1.6999   22.1813 C   0  0  0  0  0  0  0  0  0  0  0  0
  -20.0502   -2.8595   21.2382 C   0  0  0  0  0  0  0  0  0  0  0  0
  -19.3789   -6.9249   22.4520 C   0  0  0  0  0  0  0  0  0  0  0  0
  -18.1904   -6.2604   21.8577 C   0  0  0  0  0  0  0  0  0  0  0  0
  1  2  3  0
  2  3  1  0
  3  4  1  0
  4  5  1  0
  5  6  1  0
  6  7  1  0
  7  8  1  0
  8  9  1  0
  9 10  1  0
 10 11  1  0
 11 12  2  0
 11 13  1  6
 11 14  2  0
 10 15  1  0
 15 16  1  0
  7 16  1  0
  6 17  1  1
  3 18  2  0
 18 19  1  0
 19 20  2  0
  4 20  1  0
 20 21  1  0
 21 22  2  0
 22 23  1  0
 23 24  1  0
 24 25  1  0
 25 26  1  0
 26 27  1  0
 27 28  1  0
 28 29  1  1
 29 30  1  0
 30 31  2  0
 31 32  1  0
 32 33  2  0
 33 34  1  0
 34 35  1  0
 35 36  1  1
 35 37  1  0
 35 38  1  0
 33 39  1  0
 31 40  1  0
 39 40  1  0
 40 41  2  0
 41 42  1  0
 42 43  1  0
 43 44  1  0
 42 45  2  0
 30 45  1  0
 28 46  1  0
 46 47  1  0
 25 47  1  0
 23 48  2  0
 19 48  1  0
 48 49  1  0
M  END
$$$$
