ziftomenib.sdf
     RDKit          3D

 49 54  0  0  1  0  0  0  0  0999 V2000
  -20.2856  -12.6579   23.7580 N   0  0  0  0  0  0  0  0  0  0  0  0
  -20.2962  -11.5546   23.3811 C   0  0  0  0  0  0  0  0  0  0  0  0
  -20.3226  -10.2095   22.9149 C   0  0  0  0  0  0  0  0  0  0  0  0
  -20.9239   -9.7063   21.8036 N   0  0  0  0  0  0  0  0  0  0  0  0
  -21.6705  -10.5480   20.9037 C   0  0  0  0  0  0  0  0  0  0  0  0
  -20.8778  -11.7338   20.4192 C   0  0  1  0  0  0  0  0  0  0  0  0
  -21.3425  -12.9206   21.1007 N   0  0  0  0  0  0  0  0  0  0  0  0
  -22.7611  -12.9577   21.2577 C   0  0  0  0  0  0  0  0  0  0  0  0
  -23.3992  -14.1548   20.5902 C   0  0  0  0  0  0  0  0  0  0  0  0
  -22.8180  -15.3567   21.0836 N   0  0  0  0  0  0  0  0  0  0  0  0
  -23.4306  -15.8817   22.5811 S   0  0  1  0  0  6  0  0  0  0  0  0
  -24.8190  -16.4956   22.4672 O   0  0  0  0  0  0  0  0  0  0  0  0
  -22.3216  -17.0906   23.2822 C   0  0  0  0  0  0  0  0  0  0  0  0
  -23.5499  -14.7555   23.5771 O   0  0  0  0  0  0  0  0  0  0  0  0
  -21.4060  -15.4008   20.9339 C   0  0  0  0  0  0  0  0  0  0  0  0
  -20.7097  -14.1131   20.6766 C   0  0  0  0  0  0  0  0  0  0  0  0
  -20.9748  -11.8251   18.9379 C   0  0  0  0  0  0  0  0  0  0  0  0
  -19.6896   -9.1590   23.5886 C   0  0  0  0  0  0  0  0  0  0  0  0
  -19.9427   -8.0405   22.8382 C   0  0  0  0  0  0  0  0  0  0  0  0
  -20.6951   -8.3872   21.7544 C   0  0  0  0  0  0  0  0  0  0  0  0
  -21.0681   -7.3945   20.8710 C   0  0  0  0  0  0  0  0  0  0  0  0
  -20.6752   -6.1066   21.1048 C   0  0  0  0  0  0  0  0  0  0  0  0
  -19.8935   -5.7364   22.2245 C   0  0  0  0  0  0  0  0  0  0  0  0
  -19.4949   -4.3156   22.3453 C   0  0  0  0  0  0  0  0  0  0  0  0
  -20.3999   -3.3351   21.9270 N   0  0  0  0  0  0  0  0  0  0  0  0
  -19.9942   -2.0940   21.4086 C   0  0  0  0  0  0  0  0  0  0  0  0
  -19.6007   -1.0831   22.4332 C   0  0  0  0  0  0  0  0  0  0  0  0
  -20.6479   -0.9155   23.4914 C   0  0  2  0  0  0  0  0  0  0  0  0
  -20.0921   -0.2289   24.6464 N   0  0  0  0  0  0  0  0  0  0  0  0
  -19.5522    1.0694   24.6473 C   0  0  0  0  0  0  0  0  0  0  0  0
  -19.5795    1.8689   25.8214 C   0  0  0  0  0  0  0  0  0  0  0  0
  -20.0869    1.5274   27.0200 C   0  0  0  0  0  0  0  0  0  0  0  0
  -20.0285    2.4251   28.0312 C   0  0  0  0  0  0  0  0  0  0  0  0
  -20.5038    2.3280   29.4331 C   0  0  0  0  0  0  0  0  0  0  0  0
  -21.7796    3.1432   29.5445 C   0  0  1  0  0  0  0  0  0  0  0  0
  -21.5244    4.4918   29.2936 F   0  0  0  0  0  0  0  0  0  0  0  0
  -22.7240    2.7324   28.6398 F   0  0  0  0  0  0  0  0  0  0  0  0
  -22.3085    3.0861   30.8064 F   0  0  0  0  0  0  0  0  0  0  0  0
  -19.2398    3.8065   27.3067 S   0  0  0  0  0  0  0  0  0  0  0  0
  -19.0291    3.0943   25.6675 C   0  0  0  0  0  0  0  0  0  0  0  0
  -18.4813    3.5838   24.5270 N   0  0  0  0  0  0  0  0  0  0  0  0
  -18.4731    2.7857   23.4197 C   0  0  0  0  0  0  0  0  0  0  0  0
  -17.9348    3.2100   22.2002 N   0  0  0  0  0  0  0  0  0  0  0  0
  -17.9322    2.2602   21.0833 C   0  0  0  0  0  0  0  0  0  0  0  0
  -19.0106    1.5706   23.5437 N   0  0  0  0  0  0  0  0  0  0  0  0
  -21.1948   -2.2197   23.9449 C   0  0  0  0  0  0  0  0  0  0  0  0
  -21.5392   -3.1852   22.8337 C   0  0  0  0  0  0  0  0  0  0  0  0
  -19.5296   -6.7215   23.0956 C   0  0  0  0  0  0  0  0  0  0  0  0
  -18.7568   -6.4259   24.3296 C   0  0  0  0  0  0  0  0  0  0  0  0
  1  2  3  0
  2  3  1  0
  3  4  1  0
  4  5  1  0
  5  6  1  0
  6  7  1  0
  7  8  1  0
  8  9  1  0
  9 10  1  0
 10 11  1  0
 11 12  2  0
 11 13  1  1
 11 14  2  0
 10 15  1  0
 15 16  1  0
  7 16  1  0
  6 17  1  6
  3 18  2  0
 18 19  1  0
 19 20  2  0
  4 20  1  0
 20 21  1  0
 21 22  2  0
 22 23  1  0
 23 24  1  0
 24 25  1  0
 25 26  1  0
 26 27  1  0
 27 28  1  0
 28 29  1  1
 29 30  1  0
 30 31  2  0
 31 32  1  0
 32 33  2  0
 33 34  1  0
 34 35  1  0
 35 36  1  6
 35 37  1  0
 35 38  1  0
 33 39  1  0
 31 40  1  0
 39 40  1  0
 40 41  2  0
 41 42  1  0
 42 43  1  0
 43 44  1  0
 42 45  2  0
 30 45  1  0
 28 46  1  0
 46 47  1  0
 25 47  1  0
 23 48  2  0
 19 48  1  0
 48 49  1  0
M  END
$$$$
