ziftomenib.sdf
     RDKit          3D

 49 54  0  0  1  0  0  0  0  0999 V2000
  -17.2314  -13.0998   22.2932 N   0  0  0  0  0  0  0  0  0  0  0  0
  -17.7343  -12.0523   22.3905 C   0  0  0  0  0  0  0  0  0  0  0  0
  -18.3364  -10.7670   22.5031 C   0  0  0  0  0  0  0  0  0  0  0  0
  -19.6231  -10.4550   22.8146 N   0  0  0  0  0  0  0  0  0  0  0  0
  -20.5993  -11.4762   23.0968 C   0  0  0  0  0  0  0  0  0  0  0  0
  -21.2235  -12.0486   21.8510 C   0  0  1  0  0  0  0  0  0  0  0  0
  -22.3243  -12.9059   22.2275 N   0  0  0  0  0  0  0  0  0  0  0  0
  -22.8460  -13.6614   21.1340 C   0  0  0  0  0  0  0  0  0  0  0  0
  -22.7554  -15.1550   21.3501 C   0  0  0  0  0  0  0  0  0  0  0  0
  -23.4180  -15.5151   22.5573 N   0  0  0  0  0  0  0  0  0  0  0  0
  -25.1088  -15.6494   22.4290 S   0  0  1  0  0  6  0  0  0  0  0  0
  -25.5576  -16.1599   21.0669 O   0  0  0  0  0  0  0  0  0  0  0  0
  -25.7106  -16.7608   23.6881 C   0  0  0  0  0  0  0  0  0  0  0  0
  -25.8049  -14.3269   22.6319 O   0  0  0  0  0  0  0  0  0  0  0  0
  -22.9291  -14.8197   23.6955 C   0  0  0  0  0  0  0  0  0  0  0  0
  -22.1280  -13.5922   23.4494 C   0  0  0  0  0  0  0  0  0  0  0  0
  -21.6193  -10.9420   20.9396 C   0  0  0  0  0  0  0  0  0  0  0  0
  -17.6314   -9.5764   22.2943 C   0  0  0  0  0  0  0  0  0  0  0  0
  -18.5436   -8.5734   22.4942 C   0  0  0  0  0  0  0  0  0  0  0  0
  -19.7521   -9.1216   22.8105 C   0  0  0  0  0  0  0  0  0  0  0  0
  -20.8113   -8.2727   23.0609 C   0  0  0  0  0  0  0  0  0  0  0  0
  -20.6205   -6.9217   22.9837 C   0  0  0  0  0  0  0  0  0  0  0  0
  -19.3721   -6.3427   22.6550 C   0  0  0  0  0  0  0  0  0  0  0  0
  -19.3020   -4.8668   22.5608 C   0  0  0  0  0  0  0  0  0  0  0  0
  -20.4980   -4.1527   22.4365 N   0  0  0  0  0  0  0  0  0  0  0  0
  -20.5855   -2.9226   21.7638 C   0  0  0  0  0  0  0  0  0  0  0  0
  -20.1342   -1.7402   22.5543 C   0  0  0  0  0  0  0  0  0  0  0  0
  -20.7944   -1.6747   23.8976 C   0  0  2  0  0  0  0  0  0  0  0  0
  -20.0758   -0.7582   24.7683 N   0  0  0  0  0  0  0  0  0  0  0  0
  -19.7517    0.5762   24.4658 C   0  0  0  0  0  0  0  0  0  0  0  0
  -19.7441    1.5718   25.4793 C   0  0  0  0  0  0  0  0  0  0  0  0
  -20.0234    1.3988   26.7842 C   0  0  0  0  0  0  0  0  0  0  0  0
  -19.9696    2.4704   27.6091 C   0  0  0  0  0  0  0  0  0  0  0  0
  -20.2283    2.5777   29.0658 C   0  0  0  0  0  0  0  0  0  0  0  0
  -21.5269    3.3423   29.2481 C   0  0  1  0  0  0  0  0  0  0  0  0
  -21.8581    3.4329   30.6005 F   0  0  0  0  0  0  0  0  0  0  0  0
  -21.4336    4.6219   28.7653 F   0  0  0  0  0  0  0  0  0  0  0  0
  -22.5780    2.7069   28.6424 F   0  0  0  0  0  0  0  0  0  0  0  0
  -19.5140    3.7816   26.5468 S   0  0  0  0  0  0  0  0  0  0  0  0
  -19.4194    2.8074   25.0366 C   0  0  0  0  0  0  0  0  0  0  0  0
  -19.1158    3.1408   23.7570 N   0  0  0  0  0  0  0  0  0  0  0  0
  -19.1333    2.1566   22.8114 C   0  0  0  0  0  0  0  0  0  0  0  0
  -18.8396    2.4104   21.4674 N   0  0  0  0  0  0  0  0  0  0  0  0
  -18.9640    1.3016   20.5162 C   0  0  0  0  0  0  0  0  0  0  0  0
  -19.4511    0.9271   23.2212 N   0  0  0  0  0  0  0  0  0  0  0  0
  -20.8423   -3.0032   24.5598 C   0  0  0  0  0  0  0  0  0  0  0  0
  -21.2870   -4.1413   23.6694 C   0  0  0  0  0  0  0  0  0  0  0  0
  -18.3281   -7.1865   22.4106 C   0  0  0  0  0  0  0  0  0  0  0  0
  -16.9652   -6.6761   22.1122 C   0  0  0  0  0  0  0  0  0  0  0  0
  1  2  3  0
  2  3  1  0
  3  4  1  0
  4  5  1  0
  5  6  1  0
  6  7  1  0
  7  8  1  0
  8  9  1  0
  9 10  1  0
 10 11  1  0
 11 12  2  0
 11 13  1  1
 11 14  2  0
 10 15  1  0
 15 16  1  0
  7 16  1  0
  6 17  1  6
  3 18  2  0
 18 19  1  0
 19 20  2  0
  4 20  1  0
 20 21  1  0
 21 22  2  0
 22 23  1  0
 23 24  1  0
 24 25  1  0
 25 26  1  0
 26 27  1  0
 27 28  1  0
 28 29  1  1
 29 30  1  0
 30 31  2  0
 31 32  1  0
 32 33  2  0
 33 34  1  0
 34 35  1  0
 35 36  1  1
 35 37  1  0
 35 38  1  0
 33 39  1  0
 31 40  1  0
 39 40  1  0
 40 41  2  0
 41 42  1  0
 42 43  1  0
 43 44  1  0
 42 45  2  0
 30 45  1  0
 28 46  1  0
 46 47  1  0
 25 47  1  0
 23 48  2  0
 19 48  1  0
 48 49  1  0
M  END
$$$$
