7uj4
     RDKit          3D

 44 48  0  0  0  0  0  0  0  0999 V2000
  -25.2003    0.5500   23.2413 C   0  0  0  0  0  0  0  0  0  0  0  0
  -23.9634    1.5431   25.1152 N   0  0  0  0  0  0  0  0  0  0  0  0
  -23.6534    0.2728   26.9822 O   0  0  0  0  0  0  0  0  0  0  0  0
  -19.1761  -12.1201   23.3057 S   0  0  1  0  0  6  0  0  0  0  0  0
  -25.0743    0.7072   24.7265 C   0  0  1  0  0  0  0  0  0  0  0  0
  -17.7119    2.9738   23.3379 N   0  0  0  0  0  0  0  0  0  0  0  0
  -20.8673    2.0212   24.8535 O   0  0  0  0  0  0  0  0  0  0  0  0
  -26.3475    1.3556   25.2888 C   0  0  0  0  0  0  0  0  0  0  0  0
  -18.0200    0.7000   23.1419 N   0  0  0  0  0  0  0  0  0  0  0  0
  -19.6723  -12.3105   24.7116 O   0  0  0  0  0  0  0  0  0  0  0  0
  -23.5455    2.6380   24.2502 C   0  0  0  0  0  0  0  0  0  0  0  0
  -19.9752   -0.4332   24.0047 N   0  0  0  0  0  0  0  0  0  0  0  0
  -20.0561  -12.9360   22.4026 O   0  0  0  0  0  0  0  0  0  0  0  0
  -24.0419    3.9734   24.7257 C   0  0  0  0  0  0  0  0  0  0  0  0
  -20.4436   -5.2164   22.9606 N   0  0  0  0  0  0  0  0  0  0  0  0
  -23.3045    1.2792   26.3426 C   0  0  0  0  0  0  0  0  0  0  0  0
  -19.3413  -10.4677   22.8686 N   0  0  0  0  0  0  0  0  0  0  0  0
  -22.2649    2.1828   26.7934 C   0  0  0  0  0  0  0  0  0  0  0  0
  -22.3912    2.7594   28.0617 C   0  0  0  0  0  0  0  0  0  0  0  0
  -21.4514    3.5990   28.5984 C   0  0  0  0  0  0  0  0  0  0  0  0
  -20.3050    3.9186   27.8830 C   0  0  0  0  0  0  0  0  0  0  0  0
  -20.1683    3.3627   26.6422 C   0  0  0  0  0  0  0  0  0  0  0  0
  -21.1327    2.5028   26.0925 C   0  0  0  0  0  0  0  0  0  0  0  0
  -19.6508    2.0019   24.2081 C   0  0  0  0  0  0  0  0  0  0  0  0
  -18.8761    3.1247   23.9766 C   0  0  0  0  0  0  0  0  0  0  0  0
  -17.2731    1.7775   22.9172 C   0  0  0  0  0  0  0  0  0  0  0  0
  -19.2185    0.7401   23.7813 C   0  0  0  0  0  0  0  0  0  0  0  0
  -21.0857   -1.0561   23.3116 C   0  0  0  0  0  0  0  0  0  0  0  0
  -20.0373   -1.5258   24.9445 C   0  0  0  0  0  0  0  0  0  0  0  0
  -20.5152   -2.3847   23.7959 C   0  0  2  0  0  0  0  0  0  0  0  0
  -19.4321   -2.9768   22.9488 C   0  0  0  0  0  0  0  0  0  0  0  0
  -19.2604   -4.4356   23.3252 C   0  0  0  0  0  0  0  0  0  0  0  0
  -21.5173   -3.4458   24.0985 C   0  0  0  0  0  0  0  0  0  0  0  0
  -21.5524   -4.3678   22.8459 C   0  0  0  0  0  0  0  0  0  0  0  0
  -20.0766   -6.1182   21.9562 C   0  0  0  0  0  0  0  0  0  0  0  0
  -19.6560   -7.5061   22.3536 C   0  0  1  0  0  0  0  0  0  0  0  0
  -18.8729   -8.1388   21.2491 C   0  0  0  0  0  0  0  0  0  0  0  0
  -17.7556   -9.0270   21.6579 C   0  0  0  0  0  0  0  0  0  0  0  0
  -19.1437   -7.5598   23.7170 C   0  0  0  0  0  0  0  0  0  0  0  0
  -18.1807   -8.6805   24.0120 C   0  0  0  0  0  0  0  0  0  0  0  0
  -18.1231   -9.7285   22.9481 C   0  0  1  0  0  0  0  0  0  0  0  0
  -17.4942  -12.6662   23.2501 C   0  0  0  0  0  0  0  0  0  0  0  0
  -17.2549  -13.4274   21.9854 C   0  0  0  0  0  0  0  0  0  0  0  0
  -21.5792    4.1565   29.8346 F   0  0  0  0  0  0  0  0  0  0  0  0
  5  1  1  6
  2 11  1  0
  2 16  1  0
  4 10  2  0
  4 13  2  0
  4 42  1  1
  2  5  1  0
  5  8  1  0
  6 26  2  0
  7 24  1  0
  9 27  2  0
 11 14  1  0
 12 28  1  0
 12 29  1  0
 15 35  1  0
  3 16  2  0
 16 18  1  0
  4 17  1  0
 18 19  2  0
 18 23  1  0
 19 20  1  0
 20 21  2  0
 20 44  1  0
 21 22  1  0
 22 23  2  0
  7 23  1  0
 24 25  2  0
 24 27  1  0
  6 25  1  0
  9 26  1  0
 12 27  1  0
 30 28  1  6
 29 30  1  0
 30 31  1  0
 30 33  1  0
 31 32  1  0
 15 32  1  0
 33 34  1  0
 15 34  1  0
 36 35  1  6
 36 37  1  0
 36 39  1  0
 37 38  1  0
 38 41  1  0
 39 40  1  0
 40 41  1  0
 41 17  1  6
 42 43  1  0
M  END
$$$$
