7uj4
     RDKit          3D

 44 48  0  0  0  0  0  0  0  0999 V2000
  -25.3784    1.1551   23.3655 C   0  0  0  0  0  0  0  0  0  0  0  0
  -24.1600    1.8004   25.3969 N   0  0  0  0  0  0  0  0  0  0  0  0
  -23.4170   -0.1048   26.4037 O   0  0  0  0  0  0  0  0  0  0  0  0
  -19.5114  -12.1960   23.0356 S   0  0  1  0  0  6  0  0  0  0  0  0
  -25.2882    1.0777   24.8595 C   0  0  1  0  0  0  0  0  0  0  0  0
  -18.0001    3.4060   23.2359 N   0  0  0  0  0  0  0  0  0  0  0  0
  -20.6080    1.5031   24.8910 O   0  0  0  0  0  0  0  0  0  0  0  0
  -26.5531    1.6810   25.4869 C   0  0  0  0  0  0  0  0  0  0  0  0
  -18.3062    1.3944   22.1575 N   0  0  0  0  0  0  0  0  0  0  0  0
  -18.3485  -12.9105   22.4061 O   0  0  0  0  0  0  0  0  0  0  0  0
  -24.0088    3.2206   25.1109 C   0  0  0  0  0  0  0  0  0  0  0  0
  -19.9323   -0.2432   22.8823 N   0  0  0  0  0  0  0  0  0  0  0  0
  -19.5880  -12.6359   24.4696 O   0  0  0  0  0  0  0  0  0  0  0  0
  -22.8159    3.5134   24.2466 C   0  0  0  0  0  0  0  0  0  0  0  0
  -19.4783   -5.1138   23.3909 N   0  0  0  0  0  0  0  0  0  0  0  0
  -23.2218    1.1054   26.2014 C   0  0  0  0  0  0  0  0  0  0  0  0
  -19.2165  -10.5047   23.0067 N   0  0  0  0  0  0  0  0  0  0  0  0
  -22.0893    1.8268   26.7466 C   0  0  0  0  0  0  0  0  0  0  0  0
  -22.2098    2.3829   28.0247 C   0  0  0  0  0  0  0  0  0  0  0  0
  -21.1909    3.0541   28.6472 C   0  0  0  0  0  0  0  0  0  0  0  0
  -19.9649    3.2125   28.0148 C   0  0  0  0  0  0  0  0  0  0  0  0
  -19.8328    2.6746   26.7656 C   0  0  0  0  0  0  0  0  0  0  0  0
  -20.8782    1.9874   26.1279 C   0  0  0  0  0  0  0  0  0  0  0  0
  -19.6117    1.9131   24.0330 C   0  0  0  0  0  0  0  0  0  0  0  0
  -18.9504    3.1245   24.1324 C   0  0  0  0  0  0  0  0  0  0  0  0
  -17.6689    2.5582   22.2498 C   0  0  0  0  0  0  0  0  0  0  0  0
  -19.2872    1.0080   23.0149 C   0  0  0  0  0  0  0  0  0  0  0  0
  -20.0005   -1.2275   21.8202 C   0  0  0  0  0  0  0  0  0  0  0  0
  -20.7786   -1.1187   23.6557 C   0  0  0  0  0  0  0  0  0  0  0  0
  -20.1224   -2.2693   22.9269 C   0  0  2  0  0  0  0  0  0  0  0  0
  -18.8324   -2.7462   23.5186 C   0  0  0  0  0  0  0  0  0  0  0  0
  -19.0927   -4.0253   24.2903 C   0  0  0  0  0  0  0  0  0  0  0  0
  -20.9673   -3.4550   22.6074 C   0  0  0  0  0  0  0  0  0  0  0  0
  -19.9787   -4.5832   22.1948 C   0  0  0  0  0  0  0  0  0  0  0  0
  -18.4691   -6.0820   23.4230 C   0  0  0  0  0  0  0  0  0  0  0  0
  -18.8305   -7.5088   23.1155 C   0  0  1  0  0  0  0  0  0  0  0  0
  -20.0681   -7.8942   23.8592 C   0  0  0  0  0  0  0  0  0  0  0  0
  -20.9989   -8.8147   23.1585 C   0  0  0  0  0  0  0  0  0  0  0  0
  -18.7252   -7.8121   21.6938 C   0  0  0  0  0  0  0  0  0  0  0  0
  -19.5898   -8.9426   21.1987 C   0  0  0  0  0  0  0  0  0  0  0  0
  -20.2013   -9.7625   22.2883 C   0  0  1  0  0  0  0  0  0  0  0  0
  -20.9678  -12.6409   22.1349 C   0  0  0  0  0  0  0  0  0  0  0  0
  -22.1336  -12.7120   23.0687 C   0  0  0  0  0  0  0  0  0  0  0  0
  -21.3137    3.5924   29.8924 F   0  0  0  0  0  0  0  0  0  0  0  0
  5  1  1  6
  2 11  1  0
  2 16  1  0
  4 10  2  0
  4 13  2  0
  4 42  1  6
  2  5  1  0
  5  8  1  0
  6 26  2  0
  7 24  1  0
  9 27  2  0
 11 14  1  0
 12 28  1  0
 12 29  1  0
 15 35  1  0
  3 16  2  0
 16 18  1  0
  4 17  1  0
 18 19  2  0
 18 23  1  0
 19 20  1  0
 20 21  2  0
 20 44  1  0
 21 22  1  0
 22 23  2  0
  7 23  1  0
 24 25  2  0
 24 27  1  0
  6 25  1  0
  9 26  1  0
 12 27  1  0
 30 28  1  6
 29 30  1  0
 30 31  1  0
 30 33  1  0
 31 32  1  0
 15 32  1  0
 33 34  1  0
 15 34  1  0
 36 35  1  6
 36 37  1  0
 36 39  1  0
 37 38  1  0
 38 41  1  0
 39 40  1  0
 40 41  1  0
 41 17  1  1
 42 43  1  0
M  END
$$$$
