7uj4
     RDKit          3D

 44 48  0  0  0  0  0  0  0  0999 V2000
  -23.4613    4.0818   24.0865 C   0  0  0  0  0  0  0  0  0  0  0  0
  -23.4299    1.7087   24.7148 N   0  0  0  0  0  0  0  0  0  0  0  0
  -23.3991    0.4838   26.6369 O   0  0  0  0  0  0  0  0  0  0  0  0
  -19.2844  -12.2004   23.2894 S   0  0  1  0  0  6  0  0  0  0  0  0
  -22.8125    2.7414   23.9171 C   0  0  1  0  0  0  0  0  0  0  0  0
  -17.6959    3.2571   22.8993 N   0  0  0  0  0  0  0  0  0  0  0  0
  -20.1531    1.4929   24.9022 O   0  0  0  0  0  0  0  0  0  0  0  0
  -22.9108    2.2999   22.4498 C   0  0  0  0  0  0  0  0  0  0  0  0
  -18.1548    1.2092   21.9512 N   0  0  0  0  0  0  0  0  0  0  0  0
  -18.0593  -12.8656   22.7275 O   0  0  0  0  0  0  0  0  0  0  0  0
  -24.5803    0.9833   24.1933 C   0  0  0  0  0  0  0  0  0  0  0  0
  -19.7285   -0.3545   22.9153 N   0  0  0  0  0  0  0  0  0  0  0  0
  -19.4703  -12.7078   24.6907 O   0  0  0  0  0  0  0  0  0  0  0  0
  -25.8330    1.2415   24.9806 C   0  0  0  0  0  0  0  0  0  0  0  0
  -19.4625   -5.1345   24.0418 N   0  0  0  0  0  0  0  0  0  0  0  0
  -22.8932    1.4196   25.9950 C   0  0  0  0  0  0  0  0  0  0  0  0
  -19.0222  -10.5049   23.3615 N   0  0  0  0  0  0  0  0  0  0  0  0
  -21.7911    2.2174   26.4941 C   0  0  0  0  0  0  0  0  0  0  0  0
  -22.0116    3.0264   27.6140 C   0  0  0  0  0  0  0  0  0  0  0  0
  -21.0319    3.7931   28.1873 C   0  0  0  0  0  0  0  0  0  0  0  0
  -19.7461    3.7963   27.6631 C   0  0  0  0  0  0  0  0  0  0  0  0
  -19.5161    3.0108   26.5688 C   0  0  0  0  0  0  0  0  0  0  0  0
  -20.5213    2.2258   25.9814 C   0  0  0  0  0  0  0  0  0  0  0  0
  -19.2447    1.8406   23.9272 C   0  0  0  0  0  0  0  0  0  0  0  0
  -18.5520    3.0382   23.9020 C   0  0  0  0  0  0  0  0  0  0  0  0
  -17.4878    2.3597   21.9236 C   0  0  0  0  0  0  0  0  0  0  0  0
  -19.0476    0.8847   22.9229 C   0  0  0  0  0  0  0  0  0  0  0  0
  -19.7838   -1.4613   21.9808 C   0  0  0  0  0  0  0  0  0  0  0  0
  -20.6367   -1.1024   23.7499 C   0  0  0  0  0  0  0  0  0  0  0  0
  -19.9889   -2.3530   23.2005 C   0  0  2  0  0  0  0  0  0  0  0  0
  -18.7428   -2.7886   23.9069 C   0  0  0  0  0  0  0  0  0  0  0  0
  -19.0796   -3.9536   24.8173 C   0  0  0  0  0  0  0  0  0  0  0  0
  -20.8589   -3.5450   22.9900 C   0  0  0  0  0  0  0  0  0  0  0  0
  -19.8922   -4.7433   22.7671 C   0  0  0  0  0  0  0  0  0  0  0  0
  -18.4891   -6.1192   24.2408 C   0  0  0  0  0  0  0  0  0  0  0  0
  -18.7801   -7.5218   23.7835 C   0  0  1  0  0  0  0  0  0  0  0  0
  -20.0025   -8.0397   24.4697 C   0  0  0  0  0  0  0  0  0  0  0  0
  -20.8840   -8.9250   23.6674 C   0  0  0  0  0  0  0  0  0  0  0  0
  -18.6518   -7.6706   22.3394 C   0  0  0  0  0  0  0  0  0  0  0  0
  -19.4584   -8.7828   21.7206 C   0  0  0  0  0  0  0  0  0  0  0  0
  -20.0367   -9.7392   22.7128 C   0  0  1  0  0  0  0  0  0  0  0  0
  -20.6521  -12.6264   22.2511 C   0  0  0  0  0  0  0  0  0  0  0  0
  -21.5450  -13.5890   22.9667 C   0  0  0  0  0  0  0  0  0  0  0  0
  -21.2522    4.5779   29.2784 F   0  0  0  0  0  0  0  0  0  0  0  0
  5  1  1  6
  2 11  1  0
  2 16  1  0
  4 10  2  0
  4 13  2  0
  4 42  1  6
  2  5  1  0
  5  8  1  0
  6 26  2  0
  7 24  1  0
  9 27  2  0
 11 14  1  0
 12 28  1  0
 12 29  1  0
 15 35  1  0
  3 16  2  0
 16 18  1  0
  4 17  1  0
 18 19  2  0
 18 23  1  0
 19 20  1  0
 20 21  2  0
 20 44  1  0
 21 22  1  0
 22 23  2  0
  7 23  1  0
 24 25  2  0
 24 27  1  0
  6 25  1  0
  9 26  1  0
 12 27  1  0
 30 28  1  6
 29 30  1  0
 30 31  1  0
 30 33  1  0
 31 32  1  0
 15 32  1  0
 33 34  1  0
 15 34  1  0
 36 35  1  6
 36 37  1  0
 36 39  1  0
 37 38  1  0
 38 41  1  0
 39 40  1  0
 40 41  1  0
 41 17  1  1
 42 43  1  0
M  END
$$$$
