NS-C-142.sdf
     RDKit          3D

 25 28  0  0  1  0  0  0  0  0999 V2000
  -20.1612   -1.9754   22.7573 C   0  0  0  0  0  0  0  0  0  0  0  0
  -19.8902   -3.3992   22.5570 C   0  0  0  0  0  0  0  0  0  0  0  0
  -21.3715   -1.5750   22.6886 O   0  0  0  0  0  0  0  0  0  0  0  0
  -18.5937   -3.8751   22.6659 C   0  0  0  0  0  0  0  0  0  0  0  0
  -18.2132   -5.1377   22.5087 N   0  0  0  0  0  0  0  0  0  0  0  0
  -19.1939   -6.0439   22.2130 C   0  0  0  0  0  0  0  0  0  0  0  0
  -20.5100   -5.6567   22.0863 C   0  0  0  0  0  0  0  0  0  0  0  0
  -20.8614   -4.3155   22.2610 C   0  0  0  0  0  0  0  0  0  0  0  0
  -17.0607   -5.8286   22.5604 C   0  0  0  0  0  0  0  0  0  0  0  0
  -17.3035   -7.1211   22.3072 N   0  0  0  0  0  0  0  0  0  0  0  0
  -18.6077   -7.2458   22.0960 N   0  0  0  0  0  0  0  0  0  0  0  0
  -19.7620    3.9176   26.4329 C   0  0  0  0  0  0  0  0  0  0  0  0
  -20.1824    4.6248   27.5584 C   0  0  0  0  0  0  0  0  0  0  0  0
  -20.9485    4.0133   28.5334 C   0  0  0  0  0  0  0  0  0  0  0  0
  -21.2740    2.6904   28.3455 C   0  0  0  0  0  0  0  0  0  0  0  0
  -20.8627    1.9781   27.2327 C   0  0  0  0  0  0  0  0  0  0  0  0
  -20.0963    2.5904   26.2579 C   0  0  0  0  0  0  0  0  0  0  0  0
  -21.3638    4.7000   29.6385 F   0  0  0  0  0  0  0  0  0  0  0  0
  -19.6706    1.8549   25.1071 N   0  0  0  0  0  0  0  0  0  0  0  0
  -18.7999    2.4480   24.1028 C   0  0  0  0  0  0  0  0  0  0  0  0
  -18.3376    1.2689   23.2910 C   0  0  0  0  0  0  0  0  0  0  0  0
  -19.5576    0.3385   23.3362 C   0  0  2  0  0  0  0  0  0  0  0  0
  -19.9993    0.4899   24.7523 C   0  0  0  0  0  0  0  0  0  0  0  0
  -19.1478   -1.0251   23.0228 N   0  0  0  0  0  0  0  0  0  0  0  0
  -21.1919    0.6608   27.0544 F   0  0  0  0  0  0  0  0  0  0  0  0
  1  2  1  0
  1  3  2  0
  2  4  2  0
  4  5  1  0
  5  6  1  0
  6  7  1  0
  7  8  2  0
  8  2  1  0
  5  9  1  0
  9 10  2  0
 10 11  1  0
 11  6  2  0
 12 13  2  0
 13 14  1  0
 14 15  2  0
 15 16  1  0
 16 17  2  0
 17 12  1  0
 14 18  1  0
 17 19  1  0
 19 20  1  0
 20 21  1  0
 21 22  1  0
 22 23  1  0
 23 19  1  0
 22 24  1  1
  1 24  1  0
 16 25  1  0
M  END
$$$$
