ziftomenib.sdf
     RDKit          3D

 49 54  0  0  1  0  0  0  0  0999 V2000
  -17.5194  -13.5272   21.6504 N   0  0  0  0  0  0  0  0  0  0  0  0
  -17.9053  -12.4723   21.9632 C   0  0  0  0  0  0  0  0  0  0  0  0
  -18.3653  -11.1830   22.3549 C   0  0  0  0  0  0  0  0  0  0  0  0
  -19.3933  -10.8632   23.1860 N   0  0  0  0  0  0  0  0  0  0  0  0
  -20.1926  -11.8791   23.8220 C   0  0  0  0  0  0  0  0  0  0  0  0
  -21.6295  -11.8606   23.3701 C   0  0  1  0  0  0  0  0  0  0  0  0
  -21.6965  -12.3047   21.9965 N   0  0  0  0  0  0  0  0  0  0  0  0
  -21.0897  -13.5805   21.7895 C   0  0  0  0  0  0  0  0  0  0  0  0
  -22.0533  -14.6139   21.2518 C   0  0  0  0  0  0  0  0  0  0  0  0
  -22.6446  -14.1486   20.0436 N   0  0  0  0  0  0  0  0  0  0  0  0
  -21.6799  -14.3455   18.6565 S   0  0  1  0  0  6  0  0  0  0  0  0
  -20.2079  -14.5496   18.9867 O   0  0  0  0  0  0  0  0  0  0  0  0
  -22.2624  -15.7521   17.7264 C   0  0  0  0  0  0  0  0  0  0  0  0
  -21.7428  -13.1486   17.7411 O   0  0  0  0  0  0  0  0  0  0  0  0
  -23.2930  -12.8923   20.1828 C   0  0  0  0  0  0  0  0  0  0  0  0
  -22.9496  -12.0795   21.3789 C   0  0  0  0  0  0  0  0  0  0  0  0
  -22.4534  -12.6800   24.2985 C   0  0  0  0  0  0  0  0  0  0  0  0
  -17.7762   -9.9964   21.9041 C   0  0  0  0  0  0  0  0  0  0  0  0
  -18.4899   -8.9878   22.4969 C   0  0  0  0  0  0  0  0  0  0  0  0
  -19.4713   -9.5288   23.2749 C   0  0  0  0  0  0  0  0  0  0  0  0
  -20.3019   -8.6737   23.9707 C   0  0  0  0  0  0  0  0  0  0  0  0
  -20.1196   -7.3239   23.8595 C   0  0  0  0  0  0  0  0  0  0  0  0
  -19.1062   -6.7523   23.0544 C   0  0  0  0  0  0  0  0  0  0  0  0
  -19.0368   -5.2751   22.9821 C   0  0  0  0  0  0  0  0  0  0  0  0
  -20.2333   -4.5597   22.8710 N   0  0  0  0  0  0  0  0  0  0  0  0
  -20.3494   -3.3801   22.1171 C   0  0  0  0  0  0  0  0  0  0  0  0
  -19.8486   -2.1488   22.7951 C   0  0  0  0  0  0  0  0  0  0  0  0
  -20.4346   -1.9805   24.1636 C   0  0  2  0  0  0  0  0  0  0  0  0
  -19.6641   -1.0114   24.9262 N   0  0  0  0  0  0  0  0  0  0  0  0
  -19.2649    0.2584   24.4729 C   0  0  0  0  0  0  0  0  0  0  0  0
  -19.2927    1.3834   25.3400 C   0  0  0  0  0  0  0  0  0  0  0  0
  -19.6751    1.4002   26.6301 C   0  0  0  0  0  0  0  0  0  0  0  0
  -19.6398    2.5733   27.3043 C   0  0  0  0  0  0  0  0  0  0  0  0
  -20.0017    2.8878   28.7080 C   0  0  0  0  0  0  0  0  0  0  0  0
  -21.2237    3.7880   28.6782 C   0  0  1  0  0  0  0  0  0  0  0  0
  -22.2610    3.1847   27.9662 F   0  0  0  0  0  0  0  0  0  0  0  0
  -21.6929    4.0475   29.9397 F   0  0  0  0  0  0  0  0  0  0  0  0
  -20.9650    4.9720   28.0404 F   0  0  0  0  0  0  0  0  0  0  0  0
  -19.0540    3.7115   26.1141 S   0  0  0  0  0  0  0  0  0  0  0  0
  -18.8865    2.5361   24.7616 C   0  0  0  0  0  0  0  0  0  0  0  0
  -18.4753    2.6808   23.4769 N   0  0  0  0  0  0  0  0  0  0  0  0
  -18.4619    1.5767   22.6744 C   0  0  0  0  0  0  0  0  0  0  0  0
  -18.0590    1.6341   21.3360 N   0  0  0  0  0  0  0  0  0  0  0  0
  -18.0929    0.3937   20.5550 C   0  0  0  0  0  0  0  0  0  0  0  0
  -18.8586    0.4253   23.2200 N   0  0  0  0  0  0  0  0  0  0  0  0
  -20.4548   -3.2577   24.9214 C   0  0  0  0  0  0  0  0  0  0  0  0
  -20.9542   -4.4520   24.1404 C   0  0  0  0  0  0  0  0  0  0  0  0
  -18.2867   -7.6023   22.3706 C   0  0  0  0  0  0  0  0  0  0  0  0
  -17.1589   -7.1021   21.5430 C   0  0  0  0  0  0  0  0  0  0  0  0
  1  2  3  0
  2  3  1  0
  3  4  1  0
  4  5  1  0
  5  6  1  0
  6  7  1  0
  7  8  1  0
  8  9  1  0
  9 10  1  0
 10 11  1  0
 11 12  2  0
 11 13  1  6
 11 14  2  0
 10 15  1  0
 15 16  1  0
  7 16  1  0
  6 17  1  1
  3 18  2  0
 18 19  1  0
 19 20  2  0
  4 20  1  0
 20 21  1  0
 21 22  2  0
 22 23  1  0
 23 24  1  0
 24 25  1  0
 25 26  1  0
 26 27  1  0
 27 28  1  0
 28 29  1  1
 29 30  1  0
 30 31  2  0
 31 32  1  0
 32 33  2  0
 33 34  1  0
 34 35  1  0
 35 36  1  6
 35 37  1  0
 35 38  1  0
 33 39  1  0
 31 40  1  0
 39 40  1  0
 40 41  2  0
 41 42  1  0
 42 43  1  0
 43 44  1  0
 42 45  2  0
 30 45  1  0
 28 46  1  0
 46 47  1  0
 25 47  1  0
 23 48  2  0
 19 48  1  0
 48 49  1  0
M  END
$$$$
