ziftomenib.sdf
     RDKit          3D

 49 54  0  0  1  0  0  0  0  0999 V2000
  -16.6253  -12.9324   22.8855 N   0  0  0  0  0  0  0  0  0  0  0  0
  -17.3330  -12.0077   22.9440 C   0  0  0  0  0  0  0  0  0  0  0  0
  -18.1902  -10.8723   23.0040 C   0  0  0  0  0  0  0  0  0  0  0  0
  -19.3993  -10.7510   23.6149 N   0  0  0  0  0  0  0  0  0  0  0  0
  -19.9928  -11.8475   24.3366 C   0  0  0  0  0  0  0  0  0  0  0  0
  -21.3123  -12.2840   23.7555 C   0  0  1  0  0  0  0  0  0  0  0  0
  -21.0705  -12.9943   22.5203 N   0  0  0  0  0  0  0  0  0  0  0  0
  -22.1125  -13.9122   22.1882 C   0  0  0  0  0  0  0  0  0  0  0  0
  -22.7701  -13.6062   20.8617 C   0  0  0  0  0  0  0  0  0  0  0  0
  -21.7927  -13.5762   19.8274 N   0  0  0  0  0  0  0  0  0  0  0  0
  -21.3365  -15.1037   19.2340 S   0  0  1  0  0  6  0  0  0  0  0  0
  -21.3709  -16.1858   20.3042 O   0  0  0  0  0  0  0  0  0  0  0  0
  -22.4306  -15.5723   17.9051 C   0  0  0  0  0  0  0  0  0  0  0  0
  -19.9342  -15.1064   18.6790 O   0  0  0  0  0  0  0  0  0  0  0  0
  -20.7363  -12.6605   20.0790 C   0  0  0  0  0  0  0  0  0  0  0  0
  -20.5720  -12.1800   21.4759 C   0  0  0  0  0  0  0  0  0  0  0  0
  -22.0588  -13.0842   24.7627 C   0  0  0  0  0  0  0  0  0  0  0  0
  -17.8755   -9.6496   22.4005 C   0  0  0  0  0  0  0  0  0  0  0  0
  -18.9322   -8.8230   22.6804 C   0  0  0  0  0  0  0  0  0  0  0  0
  -19.8529   -9.5055   23.4203 C   0  0  0  0  0  0  0  0  0  0  0  0
  -20.9970   -8.8426   23.8164 C   0  0  0  0  0  0  0  0  0  0  0  0
  -21.1726   -7.5356   23.4578 C   0  0  0  0  0  0  0  0  0  0  0  0
  -20.2251   -6.8189   22.6893 C   0  0  0  0  0  0  0  0  0  0  0  0
  -20.5492   -5.4201   22.3281 C   0  0  0  0  0  0  0  0  0  0  0  0
  -19.5385   -4.6264   21.7769 N   0  0  0  0  0  0  0  0  0  0  0  0
  -18.3717   -4.2811   22.4790 C   0  0  0  0  0  0  0  0  0  0  0  0
  -18.5285   -3.1524   23.4423 C   0  0  0  0  0  0  0  0  0  0  0  0
  -19.1570   -1.9506   22.8056 C   0  0  2  0  0  0  0  0  0  0  0  0
  -19.6330   -1.0305   23.8260 N   0  0  0  0  0  0  0  0  0  0  0  0
  -19.5202    0.3704   23.7840 C   0  0  0  0  0  0  0  0  0  0  0  0
  -19.9044    1.1659   24.8967 C   0  0  0  0  0  0  0  0  0  0  0  0
  -20.3954    0.7295   26.0711 C   0  0  0  0  0  0  0  0  0  0  0  0
  -20.7129    1.6386   27.0221 C   0  0  0  0  0  0  0  0  0  0  0  0
  -21.2681    1.4519   28.3849 C   0  0  0  0  0  0  0  0  0  0  0  0
  -22.3763    2.4720   28.5747 C   0  0  1  0  0  0  0  0  0  0  0  0
  -21.8747    3.7691   28.4615 F   0  0  0  0  0  0  0  0  0  0  0  0
  -23.3605    2.3324   27.6308 F   0  0  0  0  0  0  0  0  0  0  0  0
  -22.9330    2.3887   29.8230 F   0  0  0  0  0  0  0  0  0  0  0  0
  -20.3202    3.1682   26.2729 S   0  0  0  0  0  0  0  0  0  0  0  0
  -19.7445    2.4949   24.7064 C   0  0  0  0  0  0  0  0  0  0  0  0
  -19.2661    3.0868   23.5832 N   0  0  0  0  0  0  0  0  0  0  0  0
  -18.9069    2.2892   22.5354 C   0  0  0  0  0  0  0  0  0  0  0  0
  -18.4100    2.8132   21.3372 N   0  0  0  0  0  0  0  0  0  0  0  0
  -17.9131    1.8711   20.3297 C   0  0  0  0  0  0  0  0  0  0  0  0
  -19.0549    0.9728   22.6963 N   0  0  0  0  0  0  0  0  0  0  0  0
  -20.3056   -2.3169   21.9382 C   0  0  0  0  0  0  0  0  0  0  0  0
  -20.0568   -3.4886   21.0158 C   0  0  0  0  0  0  0  0  0  0  0  0
  -19.0952   -7.4787   22.3025 C   0  0  0  0  0  0  0  0  0  0  0  0
  -18.0160   -6.7982   21.5413 C   0  0  0  0  0  0  0  0  0  0  0  0
  1  2  3  0
  2  3  1  0
  3  4  1  0
  4  5  1  0
  5  6  1  0
  6  7  1  0
  7  8  1  0
  8  9  1  0
  9 10  1  0
 10 11  1  0
 11 12  2  0
 11 13  1  6
 11 14  2  0
 10 15  1  0
 15 16  1  0
  7 16  1  0
  6 17  1  1
  3 18  2  0
 18 19  1  0
 19 20  2  0
  4 20  1  0
 20 21  1  0
 21 22  2  0
 22 23  1  0
 23 24  1  0
 24 25  1  0
 25 26  1  0
 26 27  1  0
 27 28  1  0
 28 29  1  1
 29 30  1  0
 30 31  2  0
 31 32  1  0
 32 33  2  0
 33 34  1  0
 34 35  1  0
 35 36  1  1
 35 37  1  0
 35 38  1  0
 33 39  1  0
 31 40  1  0
 39 40  1  0
 40 41  2  0
 41 42  1  0
 42 43  1  0
 43 44  1  0
 42 45  2  0
 30 45  1  0
 28 46  1  0
 46 47  1  0
 25 47  1  0
 23 48  2  0
 19 48  1  0
 48 49  1  0
M  END
$$$$
