NS-C-142.sdf
     RDKit          3D

 25 28  0  0  1  0  0  0  0  0999 V2000
  -20.2550   -1.7112   22.8662 C   0  0  0  0  0  0  0  0  0  0  0  0
  -20.0072   -3.1318   22.6186 C   0  0  0  0  0  0  0  0  0  0  0  0
  -21.4650   -1.3056   22.8998 O   0  0  0  0  0  0  0  0  0  0  0  0
  -18.7173   -3.6302   22.7017 C   0  0  0  0  0  0  0  0  0  0  0  0
  -18.3571   -4.8928   22.5014 N   0  0  0  0  0  0  0  0  0  0  0  0
  -19.3538   -5.7744   22.1854 C   0  0  0  0  0  0  0  0  0  0  0  0
  -20.6648   -5.3637   22.0819 C   0  0  0  0  0  0  0  0  0  0  0  0
  -20.9944   -4.0237   22.3019 C   0  0  0  0  0  0  0  0  0  0  0  0
  -17.2149   -5.6020   22.5216 C   0  0  0  0  0  0  0  0  0  0  0  0
  -17.4793   -6.8820   22.2297 N   0  0  0  0  0  0  0  0  0  0  0  0
  -18.7869   -6.9805   22.0255 N   0  0  0  0  0  0  0  0  0  0  0  0
  -19.9243    4.2178   26.4016 C   0  0  0  0  0  0  0  0  0  0  0  0
  -20.3642    4.9351   27.5132 C   0  0  0  0  0  0  0  0  0  0  0  0
  -21.0695    4.3106   28.5250 C   0  0  0  0  0  0  0  0  0  0  0  0
  -21.3154    2.9645   28.3876 C   0  0  0  0  0  0  0  0  0  0  0  0
  -20.8840    2.2419   27.2891 C   0  0  0  0  0  0  0  0  0  0  0  0
  -20.1785    2.8674   26.2774 C   0  0  0  0  0  0  0  0  0  0  0  0
  -21.5034    5.0070   29.6168 F   0  0  0  0  0  0  0  0  0  0  0  0
  -19.7320    2.1212   25.1413 N   0  0  0  0  0  0  0  0  0  0  0  0
  -18.8057    2.6890   24.1728 C   0  0  0  0  0  0  0  0  0  0  0  0
  -18.3495    1.4978   23.3755 C   0  0  0  0  0  0  0  0  0  0  0  0
  -19.5985    0.6057   23.3713 C   0  0  2  0  0  0  0  0  0  0  0  0
  -20.0891    0.7679   24.7700 C   0  0  0  0  0  0  0  0  0  0  0  0
  -19.2194   -0.7695   23.0693 N   0  0  0  0  0  0  0  0  0  0  0  0
  -21.1337    0.9015   27.1612 F   0  0  0  0  0  0  0  0  0  0  0  0
  1  2  1  0
  1  3  2  0
  2  4  2  0
  4  5  1  0
  5  6  1  0
  6  7  1  0
  7  8  2  0
  8  2  1  0
  5  9  1  0
  9 10  2  0
 10 11  1  0
 11  6  2  0
 12 13  2  0
 13 14  1  0
 14 15  2  0
 15 16  1  0
 16 17  2  0
 17 12  1  0
 14 18  1  0
 17 19  1  0
 19 20  1  0
 20 21  1  0
 21 22  1  0
 22 23  1  0
 23 19  1  0
 22 24  1  1
  1 24  1  0
 16 25  1  0
M  END
$$$$
