NS-C-142.sdf
     RDKit          3D

 25 28  0  0  1  0  0  0  0  0999 V2000
  -20.2361   -1.6683   22.8913 C   0  0  0  0  0  0  0  0  0  0  0  0
  -19.9534   -3.0946   22.7277 C   0  0  0  0  0  0  0  0  0  0  0  0
  -21.4557   -1.2989   22.9690 O   0  0  0  0  0  0  0  0  0  0  0  0
  -18.6444   -3.5462   22.7711 C   0  0  0  0  0  0  0  0  0  0  0  0
  -18.2525   -4.8081   22.6374 N   0  0  0  0  0  0  0  0  0  0  0  0
  -19.2340   -5.7397   22.4394 C   0  0  0  0  0  0  0  0  0  0  0  0
  -20.5620   -5.3776   22.3828 C   0  0  0  0  0  0  0  0  0  0  0  0
  -20.9251   -4.0362   22.5291 C   0  0  0  0  0  0  0  0  0  0  0  0
  -17.0871   -5.4789   22.6411 C   0  0  0  0  0  0  0  0  0  0  0  0
  -17.3228   -6.7837   22.4527 N   0  0  0  0  0  0  0  0  0  0  0  0
  -18.6354   -6.9362   22.3303 N   0  0  0  0  0  0  0  0  0  0  0  0
  -20.1493    4.2746   26.2852 C   0  0  0  0  0  0  0  0  0  0  0  0
  -20.5775    4.9697   27.4153 C   0  0  0  0  0  0  0  0  0  0  0  0
  -21.0527    4.2942   28.5241 C   0  0  0  0  0  0  0  0  0  0  0  0
  -21.0839    2.9207   28.4632 C   0  0  0  0  0  0  0  0  0  0  0  0
  -20.6616    2.2197   27.3472 C   0  0  0  0  0  0  0  0  0  0  0  0
  -20.1864    2.8961   26.2385 C   0  0  0  0  0  0  0  0  0  0  0  0
  -21.4738    4.9686   29.6345 F   0  0  0  0  0  0  0  0  0  0  0  0
  -19.7497    2.1724   25.0843 N   0  0  0  0  0  0  0  0  0  0  0  0
  -18.8557    2.7699   24.1034 C   0  0  0  0  0  0  0  0  0  0  0  0
  -18.3930    1.5975   23.2823 C   0  0  0  0  0  0  0  0  0  0  0  0
  -19.6240    0.6805   23.2937 C   0  0  2  0  0  0  0  0  0  0  0  0
  -20.0876    0.8165   24.7043 C   0  0  0  0  0  0  0  0  0  0  0  0
  -19.2241   -0.6831   22.9673 N   0  0  0  0  0  0  0  0  0  0  0  0
  -20.6965    0.8517   27.2960 F   0  0  0  0  0  0  0  0  0  0  0  0
  1  2  1  0
  1  3  2  0
  2  4  2  0
  4  5  1  0
  5  6  1  0
  6  7  1  0
  7  8  2  0
  8  2  1  0
  5  9  1  0
  9 10  2  0
 10 11  1  0
 11  6  2  0
 12 13  2  0
 13 14  1  0
 14 15  2  0
 15 16  1  0
 16 17  2  0
 17 12  1  0
 14 18  1  0
 17 19  1  0
 19 20  1  0
 20 21  1  0
 21 22  1  0
 22 23  1  0
 23 19  1  0
 22 24  1  1
  1 24  1  0
 16 25  1  0
M  END
$$$$
